download/pglib-opf-master/api/pglib_opf_case10000_tamu__api.m
%%%%%%%%%%%%%%%%%%%%%%%%%%%%%%%%%%%%%%%%%%%%%%%%%%%%%%%%%%%%%%%%%%%%%%%%%%%
%%%%                                                                  %%%%%
%%%%    IEEE PES Power Grid Library - Optimal Power Flow - v19.05     %%%%%
%%%%          (https://github.com/power-grid-lib/pglib-opf)           %%%%%
%%%%             Benchmark Group - Active Power Increase              %%%%%
%%%%                         08 - May - 2019                          %%%%%
%%%%                                                                  %%%%%
%%%%%%%%%%%%%%%%%%%%%%%%%%%%%%%%%%%%%%%%%%%%%%%%%%%%%%%%%%%%%%%%%%%%%%%%%%%
function mpc = pglib_opf_case10000_tamu__api
mpc.version = '2';
mpc.baseMVA = 100.0;

%% bus data
%	bus_i	type	Pd	Qd	Gs	Bs	area	Vm	Va	baseKV	zone	Vmax	Vmin
mpc.bus = [
	10001	 1	 12.93	 2.54	 0.0	 0.0	 1	    1.00000	    0.00000	 138.0	 1	    1.10000	    0.90000;
	10002	 1	 21.44	 6.04	 0.0	 0.0	 1	    1.00000	    0.00000	 138.0	 1	    1.10000	    0.90000;
	10003	 1	 19.31	 1.09	 0.0	 0.0	 1	    1.00000	    0.00000	 138.0	 1	    1.10000	    0.90000;
	10004	 1	 0.0	 0.0	 0.0	 0.0	 1	    1.00000	    0.00000	 138.0	 1	    1.10000	    0.90000;
	10005	 1	 14.02	 2.75	 0.0	 0.0	 1	    1.00000	    0.00000	 138.0	 1	    1.10000	    0.90000;
	10006	 1	 18.03	 1.28	 0.0	 0.0	 1	    1.00000	    0.00000	 138.0	 1	    1.10000	    0.90000;
	10007	 1	 0.0	 0.0	 0.0	 0.0	 1	    1.00000	    0.00000	 138.0	 1	    1.10000	    0.90000;
	10008	 1	 0.0	 0.0	 0.0	 0.0	 1	    1.00000	    0.00000	 138.0	 1	    1.10000	    0.90000;
	10009	 1	 22.57	 2.59	 0.0	 0.0	 1	    1.00000	    0.00000	 138.0	 1	    1.10000	    0.90000;
	10010	 1	 44.93	 15.14	 0.0	 0.0	 1	    1.00000	    0.00000	 138.0	 1	    1.10000	    0.90000;
	10011	 1	 42.96	 8.17	 0.0	 0.0	 1	    1.00000	    0.00000	 138.0	 1	    1.10000	    0.90000;
	10012	 1	 0.0	 0.0	 0.0	 0.0	 1	    1.00000	    0.00000	 345.0	 1	    1.10000	    0.90000;
	10013	 1	 77.53	 30.06	 0.0	 0.0	 1	    1.00000	    0.00000	 138.0	 1	    1.10000	    0.90000;
	10014	 1	 0.0	 0.0	 0.0	 0.0	 1	    1.00000	    0.00000	 138.0	 1	    1.10000	    0.90000;
	10015	 1	 33.55	 11.80	 0.0	 0.0	 1	    1.00000	    0.00000	 138.0	 1	    1.10000	    0.90000;
	10016	 1	 0.0	 0.0	 0.0	 0.0	 1	    1.00000	    0.00000	 138.0	 1	    1.10000	    0.90000;
	10017	 1	 34.73	 7.16	 0.0	 0.0	 1	    1.00000	    0.00000	 138.0	 1	    1.10000	    0.90000;
	10018	 1	 32.83	 6.19	 0.0	 0.0	 1	    1.00000	    0.00000	 138.0	 1	    1.10000	    0.90000;
	10019	 1	 0.0	 0.0	 0.0	 0.0	 1	    1.00000	    0.00000	 345.0	 1	    1.10000	    0.90000;
	10020	 1	 71.57	 4.54	 0.0	 32.0	 1	    1.00000	    0.00000	 138.0	 1	    1.10000	    0.90000;
	10021	 1	 12.06	 2.13	 0.0	 0.0	 1	    1.00000	    0.00000	 138.0	 1	    1.10000	    0.90000;
	10022	 1	 64.65	 15.92	 0.0	 0.0	 1	    1.00000	    0.00000	 138.0	 1	    1.10000	    0.90000;
	10023	 1	 0.0	 0.0	 0.0	 0.0	 1	    1.00000	    0.00000	 345.0	 1	    1.10000	    0.90000;
	10024	 1	 58.98	 8.97	 0.0	 0.0	 1	    1.00000	    0.00000	 138.0	 1	    1.10000	    0.90000;
	10025	 1	 41.44	 12.76	 0.0	 0.0	 1	    1.00000	    0.00000	 138.0	 1	    1.10000	    0.90000;
	10026	 1	 25.02	 4.97	 0.0	 0.0	 1	    1.00000	    0.00000	 138.0	 1	    1.10000	    0.90000;
	10027	 1	 0.0	 0.0	 0.0	 0.0	 1	    1.00000	    0.00000	 138.0	 1	    1.10000	    0.90000;
	10028	 1	 43.24	 12.72	 0.0	 0.0	 1	    1.00000	    0.00000	 138.0	 1	    1.10000	    0.90000;
	10029	 1	 43.24	 1.85	 0.0	 0.0	 1	    1.00000	    0.00000	 138.0	 1	    1.10000	    0.90000;
	10030	 1	 0.0	 0.0	 0.0	 0.0	 1	    1.00000	    0.00000	 138.0	 1	    1.10000	    0.90000;
	10031	 1	 53.40	 7.18	 0.0	 0.0	 1	    1.00000	    0.00000	 138.0	 1	    1.10000	    0.90000;
	10032	 1	 55.68	 5.68	 0.0	 0.0	 1	    1.00000	    0.00000	 138.0	 1	    1.10000	    0.90000;
	10033	 1	 79.22	 6.96	 0.0	 0.0	 1	    1.00000	    0.00000	 138.0	 1	    1.10000	    0.90000;
	10034	 1	 0.0	 0.0	 0.0	 0.0	 1	    1.00000	    0.00000	 138.0	 1	    1.10000	    0.90000;
	10035	 1	 79.22	 42.65	 0.0	 0.0	 1	    1.00000	    0.00000	 138.0	 1	    1.10000	    0.90000;
	10036	 1	 0.0	 0.0	 0.0	 0.0	 1	    1.00000	    0.00000	 138.0	 1	    1.10000	    0.90000;
	10037	 1	 78.20	 11.32	 0.0	 0.0	 1	    1.00000	    0.00000	 138.0	 1	    1.10000	    0.90000;
	10038	 1	 49.09	 13.17	 0.0	 0.0	 1	    1.00000	    0.00000	 138.0	 1	    1.10000	    0.90000;
	10039	 1	 0.0	 0.0	 0.0	 0.0	 1	    1.00000	    0.00000	 138.0	 1	    1.10000	    0.90000;
	10040	 1	 58.45	 13.69	 0.0	 0.0	 1	    1.00000	    0.00000	 138.0	 1	    1.10000	    0.90000;
	10041	 1	 26.94	 9.93	 0.0	 0.0	 1	    1.00000	    0.00000	 138.0	 1	    1.10000	    0.90000;
	10042	 1	 79.49	 11.36	 0.0	 0.0	 1	    1.00000	    0.00000	 138.0	 1	    1.10000	    0.90000;
	10043	 1	 0.0	 0.0	 0.0	 0.0	 1	    1.00000	    0.00000	 138.0	 1	    1.10000	    0.90000;
	10044	 1	 50.36	 1.74	 0.0	 0.0	 1	    1.00000	    0.00000	 138.0	 1	    1.10000	    0.90000;
	10045	 1	 34.01	 12.91	 0.0	 0.0	 1	    1.00000	    0.00000	 138.0	 1	    1.10000	    0.90000;
	10046	 1	 0.0	 0.0	 0.0	 0.0	 1	    1.00000	    0.00000	 138.0	 1	    1.10000	    0.90000;
	10047	 1	 61.39	 5.94	 0.0	 0.0	 1	    1.00000	    0.00000	 138.0	 1	    1.10000	    0.90000;
	10048	 1	 61.39	 10.24	 0.0	 0.0	 1	    1.00000	    0.00000	 138.0	 1	    1.10000	    0.90000;
	10049	 1	 0.0	 0.0	 0.0	 0.0	 1	    1.00000	    0.00000	 138.0	 1	    1.10000	    0.90000;
	10050	 1	 0.0	 0.0	 0.0	 0.0	 1	    1.00000	    0.00000	 138.0	 1	    1.10000	    0.90000;
	10051	 1	 0.0	 0.0	 0.0	 0.0	 1	    1.00000	    0.00000	 138.0	 1	    1.10000	    0.90000;
	10052	 1	 23.49	 1.94	 0.0	 0.0	 1	    1.00000	    0.00000	 138.0	 1	    1.10000	    0.90000;
	10053	 1	 58.60	 4.56	 0.0	 0.0	 1	    1.00000	    0.00000	 138.0	 1	    1.10000	    0.90000;
	10054	 1	 58.12	 16.13	 0.0	 0.0	 1	    1.00000	    0.00000	 138.0	 1	    1.10000	    0.90000;
	10055	 1	 23.57	 5.16	 0.0	 0.0	 1	    1.00000	    0.00000	 138.0	 1	    1.10000	    0.90000;
	10056	 1	 0.0	 0.0	 0.0	 0.0	 1	    1.00000	    0.00000	 138.0	 1	    1.10000	    0.90000;
	10057	 1	 0.0	 0.0	 0.0	 0.0	 1	    1.00000	    0.00000	 345.0	 1	    1.10000	    0.90000;
	10058	 1	 58.94	 8.14	 0.0	 0.0	 1	    1.00000	    0.00000	 138.0	 1	    1.10000	    0.90000;
	10059	 1	 0.0	 0.0	 0.0	 0.0	 1	    1.00000	    0.00000	 345.0	 1	    1.10000	    0.90000;
	10060	 1	 58.94	 27.62	 0.0	 0.0	 1	    1.00000	    0.00000	 138.0	 1	    1.10000	    0.90000;
	10061	 1	 68.52	 18.71	 0.0	 22.0	 1	    1.00000	    0.00000	 138.0	 1	    1.10000	    0.90000;
	10062	 1	 0.0	 0.0	 0.0	 0.0	 1	    1.00000	    0.00000	 138.0	 1	    1.10000	    0.90000;
	10063	 1	 0.0	 0.0	 0.0	 0.0	 1	    1.00000	    0.00000	 138.0	 1	    1.10000	    0.90000;
	10064	 1	 48.62	 9.30	 0.0	 0.0	 1	    1.00000	    0.00000	 138.0	 1	    1.10000	    0.90000;
	10065	 1	 62.06	 6.82	 0.0	 0.0	 1	    1.00000	    0.00000	 138.0	 1	    1.10000	    0.90000;
	10066	 1	 0.0	 0.0	 0.0	 0.0	 1	    1.00000	    0.00000	 13.8	 1	    1.10000	    0.90000;
	10067	 1	 0.0	 0.0	 0.0	 0.0	 1	    1.00000	    0.00000	 13.8	 1	    1.10000	    0.90000;
	10068	 1	 0.0	 0.0	 0.0	 0.0	 1	    1.00000	    0.00000	 1.0	 1	    1.10000	    0.90000;
	10069	 1	 78.97	 14.48	 0.0	 0.0	 1	    1.00000	    0.00000	 138.0	 1	    1.10000	    0.90000;
	10070	 1	 14.85	 0.16	 0.0	 0.0	 1	    1.00000	    0.00000	 138.0	 1	    1.10000	    0.90000;
	10071	 1	 51.48	 10.34	 0.0	 0.0	 1	    1.00000	    0.00000	 138.0	 1	    1.10000	    0.90000;
	10072	 1	 0.0	 0.0	 0.0	 0.0	 1	    1.00000	    0.00000	 138.0	 1	    1.10000	    0.90000;
	10073	 1	 51.48	 20.18	 0.0	 0.0	 1	    1.00000	    0.00000	 138.0	 1	    1.10000	    0.90000;
	10074	 1	 0.0	 0.0	 0.0	 0.0	 1	    1.00000	    0.00000	 138.0	 1	    1.10000	    0.90000;
	10075	 1	 19.75	 4.64	 0.0	 0.0	 1	    1.00000	    0.00000	 138.0	 1	    1.10000	    0.90000;
	10076	 1	 37.51	 2.98	 0.0	 0.0	 1	    1.00000	    0.00000	 138.0	 1	    1.10000	    0.90000;
	10077	 1	 38.18	 7.93	 0.0	 0.0	 1	    1.00000	    0.00000	 138.0	 1	    1.10000	    0.90000;
	10078	 1	 0.0	 0.0	 0.0	 0.0	 1	    1.00000	    0.00000	 345.0	 1	    1.10000	    0.90000;
	10079	 1	 74.94	 12.51	 0.0	 0.0	 1	    1.00000	    0.00000	 138.0	 1	    1.10000	    0.90000;
	10080	 1	 0.0	 0.0	 0.0	 0.0	 1	    1.00000	    0.00000	 24.0	 1	    1.10000	    0.90000;
	10081	 1	 0.0	 0.0	 0.0	 0.0	 1	    1.00000	    0.00000	 1.0	 1	    1.10000	    0.90000;
	10082	 1	 0.0	 0.0	 0.0	 0.0	 1	    1.00000	    0.00000	 138.0	 1	    1.10000	    0.90000;
	10083	 1	 29.94	 8.77	 0.0	 0.0	 1	    1.00000	    0.00000	 138.0	 1	    1.10000	    0.90000;
	10084	 1	 0.0	 0.0	 0.0	 0.0	 1	    1.00000	    0.00000	 138.0	 1	    1.10000	    0.90000;
	10085	 1	 54.82	 5.87	 0.0	 0.0	 1	    1.00000	    0.00000	 138.0	 1	    1.10000	    0.90000;
	10086	 1	 0.0	 0.0	 0.0	 0.0	 1	    1.00000	    0.00000	 138.0	 1	    1.10000	    0.90000;
	10087	 1	 14.58	 8.58	 0.0	 0.0	 1	    1.00000	    0.00000	 138.0	 1	    1.10000	    0.90000;
	10088	 1	 0.0	 0.0	 0.0	 0.0	 1	    1.00000	    0.00000	 138.0	 1	    1.10000	    0.90000;
	10089	 1	 44.58	 4.19	 0.0	 0.0	 1	    1.00000	    0.00000	 138.0	 1	    1.10000	    0.90000;
	10090	 1	 44.58	 6.75	 0.0	 0.0	 1	    1.00000	    0.00000	 138.0	 1	    1.10000	    0.90000;
	10091	 1	 50.54	 4.70	 0.0	 0.0	 1	    1.00000	    0.00000	 138.0	 1	    1.10000	    0.90000;
	10092	 1	 42.21	 1.70	 0.0	 0.0	 1	    1.00000	    0.00000	 138.0	 1	    1.10000	    0.90000;
	10093	 1	 42.21	 11.16	 0.0	 0.0	 1	    1.00000	    0.00000	 138.0	 1	    1.10000	    0.90000;
	10094	 1	 0.0	 0.0	 0.0	 0.0	 1	    1.00000	    0.00000	 138.0	 1	    1.10000	    0.90000;
	10095	 1	 0.0	 0.0	 0.0	 0.0	 1	    1.00000	    0.00000	 138.0	 1	    1.10000	    0.90000;
	10096	 1	 24.18	 4.43	 0.0	 0.0	 1	    1.00000	    0.00000	 138.0	 1	    1.10000	    0.90000;
	10097	 1	 41.62	 5.28	 0.0	 0.0	 1	    1.00000	    0.00000	 138.0	 1	    1.10000	    0.90000;
	10098	 1	 26.62	 5.60	 0.0	 0.0	 1	    1.00000	    0.00000	 138.0	 1	    1.10000	    0.90000;
	10099	 1	 0.0	 0.0	 0.0	 0.0	 1	    1.00000	    0.00000	 138.0	 1	    1.10000	    0.90000;
	10100	 1	 0.0	 0.0	 0.0	 0.0	 1	    1.00000	    0.00000	 138.0	 1	    1.10000	    0.90000;
	10101	 1	 0.0	 0.0	 0.0	 0.0	 1	    1.00000	    0.00000	 138.0	 1	    1.10000	    0.90000;
	10102	 1	 45.45	 8.27	 0.0	 0.0	 1	    1.00000	    0.00000	 138.0	 1	    1.10000	    0.90000;
	10103	 1	 0.0	 0.0	 0.0	 0.0	 1	    1.00000	    0.00000	 138.0	 1	    1.10000	    0.90000;
	10104	 1	 77.46	 17.10	 0.0	 0.0	 1	    1.00000	    0.00000	 138.0	 1	    1.10000	    0.90000;
	10105	 1	 0.0	 0.0	 0.0	 0.0	 1	    1.00000	    0.00000	 138.0	 1	    1.10000	    0.90000;
	10106	 1	 68.88	 13.64	 0.0	 0.0	 1	    1.00000	    0.00000	 138.0	 1	    1.10000	    0.90000;
	10107	 1	 36.16	 1.82	 0.0	 0.0	 1	    1.00000	    0.00000	 138.0	 1	    1.10000	    0.90000;
	10108	 1	 0.0	 0.0	 0.0	 0.0	 1	    1.00000	    0.00000	 138.0	 1	    1.10000	    0.90000;
	10109	 1	 0.0	 0.0	 0.0	 0.0	 1	    1.00000	    0.00000	 138.0	 1	    1.10000	    0.90000;
	10110	 1	 16.74	 4.31	 0.0	 0.0	 1	    1.00000	    0.00000	 138.0	 1	    1.10000	    0.90000;
	10111	 1	 0.0	 0.0	 0.0	 0.0	 1	    1.00000	    0.00000	 138.0	 1	    1.10000	    0.90000;
	10112	 1	 15.03	 2.70	 0.0	 0.0	 1	    1.00000	    0.00000	 138.0	 1	    1.10000	    0.90000;
	10113	 1	 0.0	 0.0	 0.0	 0.0	 1	    1.00000	    0.00000	 138.0	 1	    1.10000	    0.90000;
	10114	 1	 41.67	 13.53	 0.0	 0.0	 1	    1.00000	    0.00000	 138.0	 1	    1.10000	    0.90000;
	10115	 1	 41.67	 11.74	 0.0	 0.0	 1	    1.00000	    0.00000	 138.0	 1	    1.10000	    0.90000;
	10116	 1	 64.32	 5.39	 0.0	 0.0	 1	    1.00000	    0.00000	 138.0	 1	    1.10000	    0.90000;
	10117	 1	 0.0	 0.0	 0.0	 0.0	 1	    1.00000	    0.00000	 345.0	 1	    1.10000	    0.90000;
	10118	 1	 60.90	 21.63	 0.0	 0.0	 1	    1.00000	    0.00000	 138.0	 1	    1.10000	    0.90000;
	10119	 1	 0.0	 0.0	 0.0	 0.0	 1	    1.00000	    0.00000	 13.8	 1	    1.10000	    0.90000;
	10120	 1	 0.0	 0.0	 0.0	 0.0	 1	    1.00000	    0.00000	 1.0	 1	    1.10000	    0.90000;
	10121	 1	 0.0	 0.0	 0.0	 0.0	 1	    1.00000	    0.00000	 138.0	 1	    1.10000	    0.90000;
	10122	 1	 47.53	 19.18	 0.0	 0.0	 1	    1.00000	    0.00000	 138.0	 1	    1.10000	    0.90000;
	10123	 1	 0.0	 0.0	 0.0	 0.0	 1	    1.00000	    0.00000	 138.0	 1	    1.10000	    0.90000;
	10124	 1	 0.0	 0.0	 0.0	 0.0	 1	    1.00000	    0.00000	 138.0	 1	    1.10000	    0.90000;
	10125	 1	 47.53	 7.06	 0.0	 0.0	 1	    1.00000	    0.00000	 138.0	 1	    1.10000	    0.90000;
	10126	 1	 0.0	 0.0	 0.0	 0.0	 1	    1.00000	    0.00000	 138.0	 1	    1.10000	    0.90000;
	10127	 1	 0.0	 0.0	 0.0	 0.0	 1	    1.00000	    0.00000	 345.0	 1	    1.10000	    0.90000;
	10128	 1	 60.22	 16.27	 0.0	 0.0	 1	    1.00000	    0.00000	 138.0	 1	    1.10000	    0.90000;
	10129	 1	 67.20	 14.75	 0.0	 0.0	 1	    1.00000	    0.00000	 138.0	 1	    1.10000	    0.90000;
	10130	 1	 67.20	 14.37	 0.0	 0.0	 1	    1.00000	    0.00000	 138.0	 1	    1.10000	    0.90000;
	10131	 1	 0.0	 0.0	 0.0	 0.0	 1	    1.00000	    0.00000	 138.0	 1	    1.10000	    0.90000;
	10132	 1	 55.97	 12.38	 0.0	 0.0	 1	    1.00000	    0.00000	 138.0	 1	    1.10000	    0.90000;
	10133	 1	 0.0	 0.0	 0.0	 0.0	 1	    1.00000	    0.00000	 138.0	 1	    1.10000	    0.90000;
	10134	 1	 95.29	 8.23	 0.0	 0.0	 1	    1.00000	    0.00000	 138.0	 1	    1.10000	    0.90000;
	10135	 1	 81.85	 13.93	 0.0	 0.0	 1	    1.00000	    0.00000	 138.0	 1	    1.10000	    0.90000;
	10136	 1	 0.0	 0.0	 0.0	 0.0	 1	    1.00000	    0.00000	 138.0	 1	    1.10000	    0.90000;
	10137	 1	 26.93	 5.15	 0.0	 0.0	 1	    1.00000	    0.00000	 138.0	 1	    1.10000	    0.90000;
	10138	 1	 51.05	 7.43	 0.0	 0.0	 1	    1.00000	    0.00000	 138.0	 1	    1.10000	    0.90000;
	10139	 1	 46.96	 8.78	 0.0	 0.0	 1	    1.00000	    0.00000	 138.0	 1	    1.10000	    0.90000;
	10140	 1	 21.56	 5.79	 0.0	 0.0	 1	    1.00000	    0.00000	 138.0	 1	    1.10000	    0.90000;
	10141	 1	 55.15	 16.66	 0.0	 0.0	 1	    1.00000	    0.00000	 138.0	 1	    1.10000	    0.90000;
	10142	 1	 55.15	 1.31	 0.0	 0.0	 1	    1.00000	    0.00000	 138.0	 1	    1.10000	    0.90000;
	10143	 1	 0.0	 0.0	 0.0	 0.0	 1	    1.00000	    0.00000	 138.0	 1	    1.10000	    0.90000;
	10144	 1	 0.0	 0.0	 0.0	 0.0	 1	    1.00000	    0.00000	 138.0	 1	    1.10000	    0.90000;
	10145	 1	 50.94	 9.24	 0.0	 0.0	 1	    1.00000	    0.00000	 138.0	 1	    1.10000	    0.90000;
	10146	 1	 50.94	 9.30	 0.0	 0.0	 1	    1.00000	    0.00000	 138.0	 1	    1.10000	    0.90000;
	10147	 1	 0.0	 0.0	 0.0	 0.0	 1	    1.00000	    0.00000	 138.0	 1	    1.10000	    0.90000;
	10148	 1	 70.10	 24.72	 0.0	 0.0	 1	    1.00000	    0.00000	 138.0	 1	    1.10000	    0.90000;
	10149	 1	 0.0	 0.0	 0.0	 0.0	 1	    1.00000	    0.00000	 138.0	 1	    1.10000	    0.90000;
	10150	 1	 10.72	 4.67	 0.0	 0.0	 1	    1.00000	    0.00000	 18.0	 1	    1.10000	    0.90000;
	10151	 1	 15.74	 1.24	 0.0	 0.0	 1	    1.00000	    0.00000	 18.0	 1	    1.10000	    0.90000;
	10152	 1	 0.0	 0.0	 0.0	 0.0	 1	    1.00000	    0.00000	 1.0	 1	    1.10000	    0.90000;
	10153	 1	 47.43	 3.89	 0.0	 0.0	 1	    1.00000	    0.00000	 138.0	 1	    1.10000	    0.90000;
	10154	 1	 44.35	 13.11	 0.0	 0.0	 1	    1.00000	    0.00000	 138.0	 1	    1.10000	    0.90000;
	10155	 1	 0.0	 0.0	 0.0	 0.0	 1	    1.00000	    0.00000	 138.0	 1	    1.10000	    0.90000;
	10156	 1	 44.97	 4.02	 0.0	 0.0	 1	    1.00000	    0.00000	 138.0	 1	    1.10000	    0.90000;
	10157	 1	 43.37	 10.35	 0.0	 80.0	 1	    1.00000	    0.00000	 138.0	 1	    1.10000	    0.90000;
	10158	 1	 0.0	 0.0	 0.0	 0.0	 1	    1.00000	    0.00000	 138.0	 1	    1.10000	    0.90000;
	10159	 1	 20.42	 4.81	 0.0	 0.0	 1	    1.00000	    0.00000	 138.0	 1	    1.10000	    0.90000;
	10160	 1	 74.14	 20.75	 0.0	 0.0	 1	    1.00000	    0.00000	 138.0	 1	    1.10000	    0.90000;
	10161	 1	 0.0	 0.0	 0.0	 0.0	 1	    1.00000	    0.00000	 138.0	 1	    1.10000	    0.90000;
	10162	 1	 34.35	 5.53	 0.0	 0.0	 1	    1.00000	    0.00000	 138.0	 1	    1.10000	    0.90000;
	10163	 1	 0.0	 0.0	 0.0	 0.0	 1	    1.00000	    0.00000	 138.0	 1	    1.10000	    0.90000;
	10164	 1	 35.74	 6.54	 0.0	 0.0	 1	    1.00000	    0.00000	 138.0	 1	    1.10000	    0.90000;
	10165	 1	 0.0	 0.0	 0.0	 0.0	 1	    1.00000	    0.00000	 138.0	 1	    1.10000	    0.90000;
	10166	 1	 64.02	 5.40	 0.0	 0.0	 1	    1.00000	    0.00000	 138.0	 1	    1.10000	    0.90000;
	10167	 1	 43.41	 10.77	 0.0	 0.0	 1	    1.00000	    0.00000	 138.0	 1	    1.10000	    0.90000;
	10168	 1	 43.41	 10.63	 0.0	 0.0	 1	    1.00000	    0.00000	 138.0	 1	    1.10000	    0.90000;
	10169	 1	 0.0	 0.0	 0.0	 0.0	 1	    1.00000	    0.00000	 138.0	 1	    1.10000	    0.90000;
	10170	 1	 19.47	 0.92	 0.0	 0.0	 1	    1.00000	    0.00000	 138.0	 1	    1.10000	    0.90000;
	10171	 1	 69.58	 8.23	 0.0	 0.0	 1	    1.00000	    0.00000	 138.0	 1	    1.10000	    0.90000;
	10172	 1	 0.0	 0.0	 0.0	 0.0	 1	    1.00000	    0.00000	 138.0	 1	    1.10000	    0.90000;
	10173	 1	 0.0	 0.0	 0.0	 0.0	 1	    1.00000	    0.00000	 138.0	 1	    1.10000	    0.90000;
	10174	 1	 55.11	 5.55	 0.0	 0.0	 1	    1.00000	    0.00000	 138.0	 1	    1.10000	    0.90000;
	10175	 1	 55.11	 12.71	 0.0	 0.0	 1	    1.00000	    0.00000	 138.0	 1	    1.10000	    0.90000;
	10176	 1	 0.0	 0.0	 0.0	 0.0	 1	    1.00000	    0.00000	 138.0	 1	    1.10000	    0.90000;
	10177	 1	 49.64	 12.28	 0.0	 0.0	 1	    1.00000	    0.00000	 138.0	 1	    1.10000	    0.90000;
	10178	 1	 49.64	 6.33	 0.0	 0.0	 1	    1.00000	    0.00000	 138.0	 1	    1.10000	    0.90000;
	10179	 1	 74.34	 4.59	 0.0	 0.0	 1	    1.00000	    0.00000	 138.0	 1	    1.10000	    0.90000;
	10180	 1	 1.96	 0.56	 0.0	 0.0	 1	    1.00000	    0.00000	 138.0	 1	    1.10000	    0.90000;
	10181	 1	 0.0	 0.0	 0.0	 0.0	 1	    1.00000	    0.00000	 138.0	 1	    1.10000	    0.90000;
	10182	 1	 74.34	 4.80	 0.0	 0.0	 1	    1.00000	    0.00000	 138.0	 1	    1.10000	    0.90000;
	10183	 1	 65.19	 5.25	 0.0	 0.0	 1	    1.00000	    0.00000	 138.0	 1	    1.10000	    0.90000;
	10184	 1	 0.0	 0.0	 0.0	 0.0	 1	    1.00000	    0.00000	 138.0	 1	    1.10000	    0.90000;
	10185	 1	 91.31	 27.25	 0.0	 0.0	 1	    1.00000	    0.00000	 138.0	 1	    1.10000	    0.90000;
	10186	 1	 0.0	 0.0	 0.0	 0.0	 1	    1.00000	    0.00000	 138.0	 1	    1.10000	    0.90000;
	10187	 1	 50.43	 7.22	 0.0	 0.0	 1	    1.00000	    0.00000	 138.0	 1	    1.10000	    0.90000;
	10188	 1	 69.41	 17.55	 0.0	 0.0	 1	    1.00000	    0.00000	 138.0	 1	    1.10000	    0.90000;
	10189	 1	 0.0	 0.0	 0.0	 0.0	 1	    1.00000	    0.00000	 138.0	 1	    1.10000	    0.90000;
	10190	 1	 0.0	 0.0	 0.0	 0.0	 1	    1.00000	    0.00000	 138.0	 1	    1.10000	    0.90000;
	10191	 1	 85.15	 6.05	 0.0	 0.0	 1	    1.00000	    0.00000	 138.0	 1	    1.10000	    0.90000;
	10192	 1	 0.0	 0.0	 0.0	 0.0	 1	    1.00000	    0.00000	 345.0	 1	    1.10000	    0.90000;
	10193	 1	 85.15	 25.63	 0.0	 0.0	 1	    1.00000	    0.00000	 138.0	 1	    1.10000	    0.90000;
	10194	 1	 0.0	 0.0	 0.0	 0.0	 1	    1.00000	    0.00000	 24.0	 1	    1.10000	    0.90000;
	10195	 1	 0.0	 0.0	 0.0	 0.0	 1	    1.00000	    0.00000	 1.0	 1	    1.10000	    0.90000;
	10196	 1	 0.0	 0.0	 0.0	 0.0	 1	    1.00000	    0.00000	 345.0	 1	    1.10000	    0.90000;
	10197	 1	 0.0	 0.0	 0.0	 0.0	 1	    1.00000	    0.00000	 138.0	 1	    1.10000	    0.90000;
	10198	 1	 74.02	 29.09	 0.0	 0.0	 1	    1.00000	    0.00000	 345.0	 1	    1.10000	    0.90000;
	10199	 1	 34.22	 11.27	 0.0	 0.0	 1	    1.00000	    0.00000	 138.0	 1	    1.10000	    0.90000;
	10200	 1	 77.79	 19.56	 0.0	 0.0	 1	    1.00000	    0.00000	 138.0	 1	    1.10000	    0.90000;
...
];

%% generator data
%	bus	Pg	Qg	Qmax	Qmin	Vg	mBase	status	Pmax	Pmin	Pc1	Pc2	Qc1min	Qc1max	Qc2min	Qc2max	ramp_agc	ramp_10	ramp_30	ramp_q	apf
mpc.gen = [
	10683	 0.0	 0.0	 103.0	 -103.0	 1.0	 207.74	 0	 206	 26.005	 0.0	 0.0	 0.0	 0.0	 0.0	 0.0	 0.0	 0.0	 0.0	 0.0	 159.27; % NG
	10684	 97.8225	 0.0	 77.0	 -77.0	 1.0	 201.13	 1	 153	 42.645	 0.0	 0.0	 0.0	 0.0	 0.0	 0.0	 0.0	 0.0	 0.0	 0.0	 159.2667; % PEL
	10685	 338.6625	 0.0	 304.0	 -304.0	 1.0	 217.36	 1	 608	 69.325	 0.0	 0.0	 0.0	 0.0	 0.0	 0.0	 0.0	 0.0	 0.0	 0.0	 159.2667; % COW
	10686	 0.0	 0.0	 61.16	 -35.0	 1.0	 214.15	 0	 69	 28.02	 0.0	 0.0	 0.0	 0.0	 0.0	 0.0	 0.0	 0.0	 0.0	 0.0	 159.2667; % NG
	10687	 113.6575	 0.0	 84.0	 -84.0	 1.0	 188.08	 1	 167	 60.315	 0.0	 0.0	 0.0	 0.0	 0.0	 0.0	 0.0	 0.0	 0.0	 0.0	 159.2667; % NG
	10688	 136.9825	 0.0	 110.0	 -110.0	 1.0	 201.28	 1	 219	 54.965	 0.0	 0.0	 0.0	 0.0	 0.0	 0.0	 0.0	 0.0	 0.0	 0.0	 159.2667; % NG
	10689	 31.255	 0.0	 29.0	 -29.0	 1.0	 12.9	 1	 58	 4.51	 0.0	 0.0	 0.0	 0.0	 0.0	 0.0	 0.0	 0.0	 0.0	 0.0	 12.9; % NG
	10691	 68.93	 0.0	 54.0	 -54.0	 1.0	 98.92	 1	 108	 29.86	 0.0	 0.0	 0.0	 0.0	 0.0	 0.0	 0.0	 0.0	 0.0	 0.0	 98.9; % NG
	10694	 34.755	 0.0	 29.0	 -29.0	 1.0	 35.08	 1	 58	 11.51	 0.0	 0.0	 0.0	 0.0	 0.0	 0.0	 0.0	 0.0	 0.0	 0.0	 35.0; % PEL
	10695	 52.3875	 0.0	 46.0	 -46.0	 1.0	 41.36	 1	 92	 12.775	 0.0	 0.0	 0.0	 0.0	 0.0	 0.0	 0.0	 0.0	 0.0	 0.0	 35.0; % NG
	10699	 155.855	 0.0	 136.0	 -136.0	 1.0	 120.64	 1	 272	 39.71	 0.0	 0.0	 0.0	 0.0	 0.0	 0.0	 0.0	 0.0	 0.0	 0.0	 100.7; % NG
	10703	 223.575	 0.0	 190.0	 -190.0	 1.0	 174.64	 1	 379	 68.15	 0.0	 0.0	 0.0	 0.0	 0.0	 0.0	 0.0	 0.0	 0.0	 0.0	 136.3; % COW
	10710	 270.79	 0.0	 228.0	 -228.0	 1.0	 238.48	 1	 456	 85.58	 0.0	 0.0	 0.0	 0.0	 0.0	 0.0	 0.0	 0.0	 0.0	 0.0	 216.6; % NG
	10711	 184.4175	 0.0	 146.4	 -146.4	 1.0	 219.83	 1	 274	 94.835	 0.0	 0.0	 0.0	 0.0	 0.0	 0.0	 0.0	 0.0	 0.0	 0.0	 216.6; % NG
	10712	 177.4875	 0.0	 144.0	 -144.0	 1.0	 219.92	 1	 287	 67.975	 0.0	 0.0	 0.0	 0.0	 0.0	 0.0	 0.0	 0.0	 0.0	 0.0	 216.6; % NG
	10713	 192.3425	 0.0	 151.2	 -151.2	 1.0	 259.93	 1	 290	 94.685	 0.0	 0.0	 0.0	 0.0	 0.0	 0.0	 0.0	 0.0	 0.0	 0.0	 216.6; % NG
	10714	 0.0	 0.0	 83.17	 -10.61	 1.0	 235.85	 0	 13	 42.73	 0.0	 0.0	 0.0	 0.0	 0.0	 0.0	 0.0	 0.0	 0.0	 0.0	 216.6; % NG
	10715	 176.6075	 0.0	 148.8	 -148.8	 1.0	 279.75	 1	 267	 86.215	 0.0	 0.0	 0.0	 0.0	 0.0	 0.0	 0.0	 0.0	 0.0	 0.0	 216.6; % NG
	10722	 0.0	 0.0	 63.0	 -63.0	 1.0	 131.4	 0	 126	 16.39	 0.0	 0.0	 0.0	 0.0	 0.0	 0.0	 0.0	 0.0	 0.0	 0.0	 104.9; % NG
	10723	 155.5625	 0.0	 166.8	 -166.8	 1.0	 152.84	 1	 270	 41.125	 0.0	 0.0	 0.0	 0.0	 0.0	 0.0	 0.0	 0.0	 0.0	 0.0	 104.9; % NG
	10724	 147.225	 0.0	 164.4	 -164.4	 1.0	 115.76	 1	 242	 52.45	 0.0	 0.0	 0.0	 0.0	 0.0	 0.0	 0.0	 0.0	 0.0	 0.0	 104.9; % NG
	10725	 104.3225	 0.0	 159.6	 -159.6	 1.0	 116.27	 1	 173	 35.645	 0.0	 0.0	 0.0	 0.0	 0.0	 0.0	 0.0	 0.0	 0.0	 0.0	 104.9; % NG
	10726	 81.77	 0.0	 157.2	 -157.2	 1.0	 106.56	 1	 128	 35.54	 0.0	 0.0	 0.0	 0.0	 0.0	 0.0	 0.0	 0.0	 0.0	 0.0	 104.9; % PEL
	10727	 0.0	 0.0	 40.28	 -13.0	 1.0	 122.59	 0	 25	 14.125	 0.0	 0.0	 0.0	 0.0	 0.0	 0.0	 0.0	 0.0	 0.0	 0.0	 104.9; % NG
	10728	 73.4525	 0.0	 1165.2	 -1165.2	 1.0	 32.27	 1	 135	 11.905	 0.0	 0.0	 0.0	 0.0	 0.0	 0.0	 0.0	 0.0	 0.0	 0.0	 27.95; % NG
	10728	 0.0	 0.0	 10.73	 -1.37	 1.0	 35.8	 0	 0	 6.98	 0.0	 0.0	 0.0	 0.0	 0.0	 0.0	 0.0	 0.0	 0.0	 0.0	 27.95; % PEL
	10729	 0.0	 0.0	 14.0	 -14.0	 1.0	 27.95	 0	 28	 3.015	 0.0	 0.0	 0.0	 0.0	 0.0	 0.0	 0.0	 0.0	 0.0	 0.0	 27.95; % NG
	10729	 73.615	 0.0	 70.8	 -70.8	 1.0	 32.33	 1	 137	 10.23	 0.0	 0.0	 0.0	 0.0	 0.0	 0.0	 0.0	 0.0	 0.0	 0.0	 27.95; % PEL
	10731	 0.0	 0.0	 8.0	 -8.0	 1.0	 18.62	 0	 15	 2.82	 0.0	 0.0	 0.0	 0.0	 0.0	 0.0	 0.0	 0.0	 0.0	 0.0	 16.92; % PEL
	10731	 0.0	 0.0	 7.0	 -7.0	 1.0	 21.25	 0	 13	 3.43	 0.0	 0.0	 0.0	 0.0	 0.0	 0.0	 0.0	 0.0	 0.0	 0.0	 16.92; % NG
	10731	 0.0	 0.0	 36.0	 -36.0	 1.0	 16.92	 0	 72	 1.52	 0.0	 0.0	 0.0	 0.0	 0.0	 0.0	 0.0	 0.0	 0.0	 0.0	 16.92; % NG
	10731	 194.4575	 0.0	 192.0	 -192.0	 1.0	 19.89	 1	 384	 4.915	 0.0	 0.0	 0.0	 0.0	 0.0	 0.0	 0.0	 0.0	 0.0	 0.0	 16.92; % NG
	10731	 0.0	 0.0	 42.0	 -42.0	 1.0	 20.51	 0	 84	 2.08	 0.0	 0.0	 0.0	 0.0	 0.0	 0.0	 0.0	 0.0	 0.0	 0.0	 16.92; % PEL
	10737	 165.1375	 0.0	 147.0	 -147.0	 1.0	 193.29	 1	 294	 36.275	 0.0	 0.0	 0.0	 0.0	 0.0	 0.0	 0.0	 0.0	 0.0	 0.0	 159.15; % COW
	10738	 246.135	 0.0	 232.0	 -232.0	 1.0	 195.43	 1	 463	 29.27	 0.0	 0.0	 0.0	 0.0	 0.0	 0.0	 0.0	 0.0	 0.0	 0.0	 159.15; % COW
	10742	 95.0	 0.0	 75.0	 -75.0	 1.0	 96.14	 1	 150	 40.0	 0.0	 0.0	 0.0	 0.0	 0.0	 0.0	 0.0	 0.0	 0.0	 0.0	 80.0; % NG
	10743	 0.0	 0.0	 30.72	 -8.0	 1.0	 93.18	 0	 16	 15.985	 0.0	 0.0	 0.0	 0.0	 0.0	 0.0	 0.0	 0.0	 0.0	 0.0	 80.0; % PEL
	10744	 87.0575	 0.0	 71.0	 -71.0	 1.0	 106.35	 1	 142	 32.115	 0.0	 0.0	 0.0	 0.0	 0.0	 0.0	 0.0	 0.0	 0.0	 0.0	 80.0; % NG
	10746	 71.0875	 0.0	 55.0	 -55.0	 1.0	 98.26	 1	 109	 33.175	 0.0	 0.0	 0.0	 0.0	 0.0	 0.0	 0.0	 0.0	 0.0	 0.0	 90.0; % PEL
	10750	 357.3425	 0.0	 255.0	 -255.0	 1.0	 498.65	 1	 510	 204.685	 0.0	 0.0	 0.0	 0.0	 0.0	 0.0	 0.0	 0.0	 0.0	 0.0	 409.37; % NG
	10751	 0.0	 0.0	 157.2	 -62.0	 1.0	 454.46	 0	 124	 23.7	 0.0	 0.0	 0.0	 0.0	 0.0	 0.0	 0.0	 0.0	 0.0	 0.0	 409.3667; % NG
	10752	 351.2625	 0.0	 278.0	 -278.0	 1.0	 417.45	 1	 556	 146.525	 0.0	 0.0	 0.0	 0.0	 0.0	 0.0	 0.0	 0.0	 0.0	 0.0	 409.3667; % COW
	10753	 0.0	 0.0	 157.2	 -43.0	 1.0	 459.34	 0	 85	 24.81	 0.0	 0.0	 0.0	 0.0	 0.0	 0.0	 0.0	 0.0	 0.0	 0.0	 409.3667; % NG
	10754	 347.775	 0.0	 267.0	 -267.0	 1.0	 487.04	 1	 534	 161.55	 0.0	 0.0	 0.0	 0.0	 0.0	 0.0	 0.0	 0.0	 0.0	 0.0	 409.3667; % NG
	10755	 277.4825	 0.0	 194.0	 -194.0	 1.0	 548.59	 1	 388	 166.965	 0.0	 0.0	 0.0	 0.0	 0.0	 0.0	 0.0	 0.0	 0.0	 0.0	 409.37; % NG
	10757	 85.125	 0.0	 75.0	 -75.0	 1.0	 45.68	 1	 150	 20.25	 0.0	 0.0	 0.0	 0.0	 0.0	 0.0	 0.0	 0.0	 0.0	 0.0	 40.5; % NG
	10757	 87.625	 0.0	 78.0	 -78.0	 1.0	 47.33	 1	 155	 20.25	 0.0	 0.0	 0.0	 0.0	 0.0	 0.0	 0.0	 0.0	 0.0	 0.0	 40.5; % NG
	10757	 57.735	 0.0	 51.0	 -51.0	 1.0	 57.72	 1	 101	 14.47	 0.0	 0.0	 0.0	 0.0	 0.0	 0.0	 0.0	 0.0	 0.0	 0.0	 40.5; % NG
	10757	 0.0	 0.0	 15.55	 -12.0	 1.0	 56.8	 0	 24	 4.79	 0.0	 0.0	 0.0	 0.0	 0.0	 0.0	 0.0	 0.0	 0.0	 0.0	 40.5; % NG
	10758	 0.0	 0.0	 21.35	 -6.0	 1.0	 64.74	 0	 12	 9.71	 0.0	 0.0	 0.0	 0.0	 0.0	 0.0	 0.0	 0.0	 0.0	 0.0	 55.6; % PEL
	10758	 74.4	 0.0	 391.2	 -391.2	 1.0	 63.99	 1	 121	 27.8	 0.0	 0.0	 0.0	 0.0	 0.0	 0.0	 0.0	 0.0	 0.0	 0.0	 55.6; % PEL
	10760	 0.0	 0.0	 109.0	 -109.0	 1.0	 69.12	 0	 217	 6.53	 0.0	 0.0	 0.0	 0.0	 0.0	 0.0	 0.0	 0.0	 0.0	 0.0	 61.5; % NG
	10768	 187.6275	 0.0	 135.0	 -135.0	 1.0	 301.55	 1	 269	 106.255	 0.0	 0.0	 0.0	 0.0	 0.0	 0.0	 0.0	 0.0	 0.0	 0.0	 266.8; % NG
	10771	 70.455	 0.0	 58.0	 -58.0	 1.0	 72.35	 1	 115	 25.91	 0.0	 0.0	 0.0	 0.0	 0.0	 0.0	 0.0	 0.0	 0.0	 0.0	 51.825; % NG
	10772	 131.405	 0.0	 121.0	 -121.0	 1.0	 52.68	 1	 242	 20.81	 0.0	 0.0	 0.0	 0.0	 0.0	 0.0	 0.0	 0.0	 0.0	 0.0	 51.825; % NG
	10773	 0.0	 0.0	 135.0	 -135.0	 1.0	 66.71	 0	 270	 10.44	 0.0	 0.0	 0.0	 0.0	 0.0	 0.0	 0.0	 0.0	 0.0	 0.0	 51.83; % NG
	10774	 74.845	 0.0	 65.0	 -65.0	 1.0	 57.61	 1	 129	 20.69	 0.0	 0.0	 0.0	 0.0	 0.0	 0.0	 0.0	 0.0	 0.0	 0.0	 51.825; % NG
	10776	 0.0	 0.0	 136.0	 -136.0	 1.0	 32.07	 0	 271	 1.885	 0.0	 0.0	 0.0	 0.0	 0.0	 0.0	 0.0	 0.0	 0.0	 0.0	 28.0; % NG
	10776	 87.08	 0.0	 84.0	 -84.0	 1.0	 23.98	 1	 167	 7.16	 0.0	 0.0	 0.0	 0.0	 0.0	 0.0	 0.0	 0.0	 0.0	 0.0	 20.0; % COW
	10778	 47.5075	 0.0	 46.0	 -46.0	 1.0	 11.56	 1	 91	 4.015	 0.0	 0.0	 0.0	 0.0	 0.0	 0.0	 0.0	 0.0	 0.0	 0.0	 10.0; % PEL
	10778	 73.2	 0.0	 70.0	 -70.0	 1.0	 14.94	 1	 139	 7.4	 0.0	 0.0	 0.0	 0.0	 0.0	 0.0	 0.0	 0.0	 0.0	 0.0	 14.8; % NG
	10782	 29.8575	 0.0	 27.0	 -27.0	 1.0	 27.32	 1	 53	 6.715	 0.0	 0.0	 0.0	 0.0	 0.0	 0.0	 0.0	 0.0	 0.0	 0.0	 18.3333; % NG
	10782	 44.6625	 0.0	 41.0	 -41.0	 1.0	 18.63	 1	 82	 7.325	 0.0	 0.0	 0.0	 0.0	 0.0	 0.0	 0.0	 0.0	 0.0	 0.0	 18.3333; % NG
	10783	 17.81	 0.0	 15.0	 -15.0	 1.0	 22.11	 1	 29	 6.62	 0.0	 0.0	 0.0	 0.0	 0.0	 0.0	 0.0	 0.0	 0.0	 0.0	 18.3333; % PEL
	10784	 99.8025	 0.0	 96.0	 -96.0	 1.0	 43.83	 1	 191	 8.605	 0.0	 0.0	 0.0	 0.0	 0.0	 0.0	 0.0	 0.0	 0.0	 0.0	 39.4; % NG
	10784	 126.2075	 0.0	 116.0	 -116.0	 1.0	 64.64	 1	 231	 21.415	 0.0	 0.0	 0.0	 0.0	 0.0	 0.0	 0.0	 0.0	 0.0	 0.0	 58.2; % NG
	10785	 66.35	 0.0	 57.0	 -57.0	 1.0	 44.46	 1	 113	 19.7	 0.0	 0.0	 0.0	 0.0	 0.0	 0.0	 0.0	 0.0	 0.0	 0.0	 39.4; % NG
	10785	 192.27	 0.0	 185.0	 -185.0	 1.0	 49.64	 1	 369	 15.54	 0.0	 0.0	 0.0	 0.0	 0.0	 0.0	 0.0	 0.0	 0.0	 0.0	 39.4; % COW
	10791	 89.05	 0.0	 97.2	 -97.2	 1.0	 136.19	 1	 149	 29.1	 0.0	 0.0	 0.0	 0.0	 0.0	 0.0	 0.0	 0.0	 0.0	 0.0	 105.3; % PEL
	10796	 0.0	 0.0	 23.0	 -23.0	 1.0	 55.57	 0	 45	 3.71	 0.0	 0.0	 0.0	 0.0	 0.0	 0.0	 0.0	 0.0	 0.0	 0.0	 41.7; % PEL
	10797	 40.2075	 0.0	 38.0	 -38.0	 1.0	 62.55	 1	 76	 4.415	 0.0	 0.0	 0.0	 0.0	 0.0	 0.0	 0.0	 0.0	 0.0	 0.0	 41.7; % NG
	10797	 35.66	 0.0	 32.0	 -32.0	 1.0	 41.7	 1	 63	 8.32	 0.0	 0.0	 0.0	 0.0	 0.0	 0.0	 0.0	 0.0	 0.0	 0.0	 41.7; % NG
	10798	 75.9525	 0.0	 73.0	 -73.0	 1.0	 41.7	 1	 145	 6.905	 0.0	 0.0	 0.0	 0.0	 0.0	 0.0	 0.0	 0.0	 0.0	 0.0	 41.7; % NG
	10800	 72.085	 0.0	 52.0	 -52.0	 1.0	 129.15	 1	 103	 41.17	 0.0	 0.0	 0.0	 0.0	 0.0	 0.0	 0.0	 0.0	 0.0	 0.0	 97.8; % NG
	10802	 25.055	 0.0	 23.0	 -23.0	 1.0	 14.15	 1	 45	 5.11	 0.0	 0.0	 0.0	 0.0	 0.0	 0.0	 0.0	 0.0	 0.0	 0.0	 12.0; % NG
	10803	 23.5	 0.0	 21.0	 -21.0	 1.0	 12.12	 1	 41	 6.0	 0.0	 0.0	 0.0	 0.0	 0.0	 0.0	 0.0	 0.0	 0.0	 0.0	 12.0; % NG
	10806	 44.685	 0.0	 36.0	 -36.0	 1.0	 52.42	 1	 72	 17.37	 0.0	 0.0	 0.0	 0.0	 0.0	 0.0	 0.0	 0.0	 0.0	 0.0	 45.6; % NG
	10806	 69.2425	 0.0	 59.0	 -59.0	 1.0	 61.48	 1	 117	 21.485	 0.0	 0.0	 0.0	 0.0	 0.0	 0.0	 0.0	 0.0	 0.0	 0.0	 45.6; % NG
	10807	 0.0	 0.0	 17.51	 -8.0	 1.0	 68.4	 0	 15	 10.505	 0.0	 0.0	 0.0	 0.0	 0.0	 0.0	 0.0	 0.0	 0.0	 0.0	 45.6; % NG
	10807	 79.065	 0.0	 72.0	 -72.0	 1.0	 51.24	 1	 143	 15.13	 0.0	 0.0	 0.0	 0.0	 0.0	 0.0	 0.0	 0.0	 0.0	 0.0	 45.6; % NG
	10811	 543.7825	 7.3	 441.6	 -427.0	 1.0	 1400.38	 1	 853	 234.565	 0.0	 0.0	 0.0	 0.0	 0.0	 0.0	 0.0	 0.0	 0.0	 0.0	 1200.0; % COW
	10813	 141.08	 0.0	 668.4	 -668.4	 1.0	 74.5	 1	 254	 28.16	 0.0	 0.0	 0.0	 0.0	 0.0	 0.0	 0.0	 0.0	 0.0	 0.0	 67.0; % NG
	10813	 0.0	 0.0	 25.73	 -10.0	 1.0	 91.7	 0	 20	 15.185	 0.0	 0.0	 0.0	 0.0	 0.0	 0.0	 0.0	 0.0	 0.0	 0.0	 67.0; % PEL
	10817	 76.175	 0.0	 64.0	 -64.0	 1.0	 68.96	 1	 127	 25.35	 0.0	 0.0	 0.0	 0.0	 0.0	 0.0	 0.0	 0.0	 0.0	 0.0	 50.7; % NG
	10818	 0.0	 0.0	 0.0	 0.0	 1.0	 7.2	 0	 0	 2.33	 0.0	 0.0	 0.0	 0.0	 0.0	 0.0	 0.0	 0.0	 0.0	 0.0	 7.2; % PEL
	10821	 0.0	 0.0	 117.0	 -117.0	 1.0	 208.02	 0	 233	 31.925	 0.0	 0.0	 0.0	 0.0	 0.0	 0.0	 0.0	 0.0	 0.0	 0.0	 151.2; % COW
	10829	 119.81	 0.0	 101.0	 -101.0	 1.0	 168.3	 1	 202	 37.62	 0.0	 0.0	 0.0	 0.0	 0.0	 0.0	 0.0	 0.0	 0.0	 0.0	 135.0; % NG
	10830	 401.75	 0.0	 368.0	 -368.0	 1.0	 159.7	 1	 736	 67.5	 0.0	 0.0	 0.0	 0.0	 0.0	 0.0	 0.0	 0.0	 0.0	 0.0	 135.0; % COW
	10831	 94.0375	 0.0	 68.0	 -68.0	 1.0	 152.07	 1	 135	 53.075	 0.0	 0.0	 0.0	 0.0	 0.0	 0.0	 0.0	 0.0	 0.0	 0.0	 135.0; % NG
	10832	 133.75	 0.0	 100.0	 -100.0	 1.0	 143.54	 1	 200	 67.5	 0.0	 0.0	 0.0	 0.0	 0.0	 0.0	 0.0	 0.0	 0.0	 0.0	 135.0; % NG
	10833	 92.535	 0.0	 71.0	 -71.0	 1.0	 177.11	 1	 141	 44.07	 0.0	 0.0	 0.0	 0.0	 0.0	 0.0	 0.0	 0.0	 0.0	 0.0	 135.0; % PEL
	10834	 89.3975	 0.0	 71.0	 -71.0	 1.0	 175.15	 1	 141	 37.795	 0.0	 0.0	 0.0	 0.0	 0.0	 0.0	 0.0	 0.0	 0.0	 0.0	 135.0; % PEL
	10836	 136.1425	 0.0	 131.0	 -131.0	 1.0	 116.35	 1	 262	 10.285	 0.0	 0.0	 0.0	 0.0	 0.0	 0.0	 0.0	 0.0	 0.0	 0.0	 88.9; % NG
	10836	 121.23	 0.0	 118.0	 -118.0	 1.0	 90.43	 1	 235	 7.46	 0.0	 0.0	 0.0	 0.0	 0.0	 0.0	 0.0	 0.0	 0.0	 0.0	 88.9; % NG
	10838	 558.395	 0.0	 856.8	 -856.8	 1.0	 91.58	 1	 1094	 22.79	 0.0	 0.0	 0.0	 0.0	 0.0	 0.0	 0.0	 0.0	 0.0	 0.0	 64.0; % PEL
	10842	 47.625	 0.0	 45.0	 -45.0	 1.0	 12.8	 1	 90	 5.25	 0.0	 0.0	 0.0	 0.0	 0.0	 0.0	 0.0	 0.0	 0.0	 0.0	 12.8; % NG
	10842	 75.055	 0.0	 73.0	 -73.0	 1.0	 16.02	 1	 146	 4.11	 0.0	 0.0	 0.0	 0.0	 0.0	 0.0	 0.0	 0.0	 0.0	 0.0	 12.8; % COW
	10843	 84.7625	 0.0	 82.0	 -82.0	 1.0	 13.06	 1	 164	 5.525	 0.0	 0.0	 0.0	 0.0	 0.0	 0.0	 0.0	 0.0	 0.0	 0.0	 12.8; % NG
	10843	 0.0	 0.0	 63.0	 -63.0	 1.0	 14.28	 0	 125	 1.78	 0.0	 0.0	 0.0	 0.0	 0.0	 0.0	 0.0	 0.0	 0.0	 0.0	 12.8; % NG
	10843	 103.7225	 0.0	 102.0	 -102.0	 1.0	 12.8	 1	 203	 4.445	 0.0	 0.0	 0.0	 0.0	 0.0	 0.0	 0.0	 0.0	 0.0	 0.0	 12.8; % NG
	10847	 176.125	 0.0	 151.0	 -151.0	 1.0	 118.86	 1	 302	 50.25	 0.0	 0.0	 0.0	 0.0	 0.0	 0.0	 0.0	 0.0	 0.0	 0.0	 100.5; % NG
	10848	 242.13	 0.0	 223.0	 -223.0	 1.0	 140.04	 1	 445	 39.26	 0.0	 0.0	 0.0	 0.0	 0.0	 0.0	 0.0	 0.0	 0.0	 0.0	 100.5; % COW
	10849	 104.3475	 0.0	 84.0	 -84.0	 1.0	 128.45	 1	 167	 41.695	 0.0	 0.0	 0.0	 0.0	 0.0	 0.0	 0.0	 0.0	 0.0	 0.0	 100.5; % NG
	10850	 115.825	 0.0	 94.0	 -94.0	 1.0	 120.81	 1	 188	 43.65	 0.0	 0.0	 0.0	 0.0	 0.0	 0.0	 0.0	 0.0	 0.0	 0.0	 100.5; % PEL
	10851	 100.09	 0.0	 80.0	 -80.0	 1.0	 108.12	 1	 160	 40.18	 0.0	 0.0	 0.0	 0.0	 0.0	 0.0	 0.0	 0.0	 0.0	 0.0	 100.5; % NG
	10852	 151.765	 0.0	 127.0	 -127.0	 1.0	 100.5	 1	 254	 49.53	 0.0	 0.0	 0.0	 0.0	 0.0	 0.0	 0.0	 0.0	 0.0	 0.0	 100.5; % NG
	10853	 0.0	 0.0	 9.0	 -9.0	 1.0	 13.29	 0	 17	 1.715	 0.0	 0.0	 0.0	 0.0	 0.0	 0.0	 0.0	 0.0	 0.0	 0.0	 10.0; % NG
	10859	 0.0	 0.0	 340.13	 -89.05	 1.0	 844.8	 0	 117	 357.25	 0.0	 0.0	 0.0	 0.0	 0.0	 0.0	 0.0	 0.0	 0.0	 0.0	 729.9; % COW
	10860	 643.0475	 0.0	 565.0	 -565.0	 1.0	 887.05	 1	 1130	 156.095	 0.0	 0.0	 0.0	 0.0	 0.0	 0.0	 0.0	 0.0	 0.0	 0.0	 729.9; % COW
	10864	 143.9025	 0.0	 118.0	 -118.0	 1.0	 187.87	 1	 236	 51.805	 0.0	 0.0	 0.0	 0.0	 0.0	 0.0	 0.0	 0.0	 0.0	 0.0	 150.0; % NG
	10865	 126.74	 0.0	 99.0	 -99.0	 1.0	 209.0	 1	 198	 55.48	 0.0	 0.0	 0.0	 0.0	 0.0	 0.0	 0.0	 0.0	 0.0	 0.0	 150.0; % NG
	10867	 51.28	 0.0	 49.0	 -49.0	 1.0	 15.21	 1	 97	 5.56	 0.0	 0.0	 0.0	 0.0	 0.0	 0.0	 0.0	 0.0	 0.0	 0.0	 15.0; % NG
	10867	 14.3475	 0.0	 12.0	 -12.0	 1.0	 20.37	 1	 23	 5.695	 0.0	 0.0	 0.0	 0.0	 0.0	 0.0	 0.0	 0.0	 0.0	 0.0	 15.0; % NG
	10869	 0.0	 0.0	 12.0	 -12.0	 1.0	 10.0	 0	 24	 1.555	 0.0	 0.0	 0.0	 0.0	 0.0	 0.0	 0.0	 0.0	 0.0	 0.0	 10.0; % PEL
	10869	 13.5	 0.0	 11.0	 -11.0	 1.0	 11.12	 1	 22	 5.0	 0.0	 0.0	 0.0	 0.0	 0.0	 0.0	 0.0	 0.0	 0.0	 0.0	 10.0; % PEL
	10872	 105.5225	 0.0	 121.2	 -121.2	 1.0	 90.38	 1	 197	 14.045	 0.0	 0.0	 0.0	 0.0	 0.0	 0.0	 0.0	 0.0	 0.0	 0.0	 61.8; % NG
	10873	 62.9775	 0.0	 58.0	 -58.0	 1.0	 33.07	 1	 115	 10.955	 0.0	 0.0	 0.0	 0.0	 0.0	 0.0	 0.0	 0.0	 0.0	 0.0	 29.6; % NG
	10873	 0.0	 0.0	 160.0	 -160.0	 1.0	 38.51	 0	 320	 2.295	 0.0	 0.0	 0.0	 0.0	 0.0	 0.0	 0.0	 0.0	 0.0	 0.0	 29.6; % NG
	10879	 89.6075	 0.0	 72.0	 -72.0	 1.0	 149.8	 1	 144	 35.215	 0.0	 0.0	 0.0	 0.0	 0.0	 0.0	 0.0	 0.0	 0.0	 0.0	 135.0; % NG
	10880	 104.805	 0.0	 78.0	 -78.0	 1.0	 177.0	 1	 155	 54.61	 0.0	 0.0	 0.0	 0.0	 0.0	 0.0	 0.0	 0.0	 0.0	 0.0	 135.0; % NG
	10881	 73.29	 0.0	 55.0	 -55.0	 1.0	 178.0	 1	 110	 36.58	 0.0	 0.0	 0.0	 0.0	 0.0	 0.0	 0.0	 0.0	 0.0	 0.0	 135.0; % COW
	10882	 0.0	 0.0	 51.84	 -6.62	 1.0	 183.66	 0	 11	 26.85	 0.0	 0.0	 0.0	 0.0	 0.0	 0.0	 0.0	 0.0	 0.0	 0.0	 135.0; % NG
	10883	 0.0	 0.0	 51.84	 -30.0	 1.0	 146.95	 0	 59	 28.77	 0.0	 0.0	 0.0	 0.0	 0.0	 0.0	 0.0	 0.0	 0.0	 0.0	 135.0; % NG
	10884	 107.5325	 0.0	 78.0	 -78.0	 1.0	 153.95	 1	 156	 59.065	 0.0	 0.0	 0.0	 0.0	 0.0	 0.0	 0.0	 0.0	 0.0	 0.0	 135.0; % NG
	10889	 68.4075	 0.0	 58.0	 -58.0	 1.0	 110.05	 1	 115	 21.815	 0.0	 0.0	 0.0	 0.0	 0.0	 0.0	 0.0	 0.0	 0.0	 0.0	 87.8; % PEL
	10890	 0.0	 0.0	 140.0	 -140.0	 1.0	 38.42	 0	 279	 7.55	 0.0	 0.0	 0.0	 0.0	 0.0	 0.0	 0.0	 0.0	 0.0	 0.0	 37.7; % NG
	10895	 74.7375	 0.0	 65.0	 -65.0	 1.0	 115.42	 1	 130	 19.475	 0.0	 0.0	 0.0	 0.0	 0.0	 0.0	 0.0	 0.0	 0.0	 0.0	 94.0; % NG
	10896	 84.4025	 0.0	 82.0	 -82.0	 1.0	 108.98	 1	 163	 5.805	 0.0	 0.0	 0.0	 0.0	 0.0	 0.0	 0.0	 0.0	 0.0	 0.0	 94.0; % NG
	10897	 158.6675	 0.0	 152.0	 -152.0	 1.0	 118.83	 1	 303	 14.335	 0.0	 0.0	 0.0	 0.0	 0.0	 0.0	 0.0	 0.0	 0.0	 0.0	 94.0; % NG
	10898	 74.43	 0.0	 65.0	 -65.0	 1.0	 138.07	 1	 129	 19.86	 0.0	 0.0	 0.0	 0.0	 0.0	 0.0	 0.0	 0.0	 0.0	 0.0	 94.0; % NG
	10901	 51.0525	 0.0	 42.0	 -42.0	 1.0	 61.88	 1	 84	 18.105	 0.0	 0.0	 0.0	 0.0	 0.0	 0.0	 0.0	 0.0	 0.0	 0.0	 46.0; % PEL
	10902	 0.0	 0.0	 17.66	 -8.0	 1.0	 46.65	 0	 15	 5.065	 0.0	 0.0	 0.0	 0.0	 0.0	 0.0	 0.0	 0.0	 0.0	 0.0	 46.0; % PEL
	10904	 74.2825	 0.0	 65.0	 -65.0	 1.0	 64.29	 1	 130	 18.565	 0.0	 0.0	 0.0	 0.0	 0.0	 0.0	 0.0	 0.0	 0.0	 0.0	 50.0; % NG
	10908	 142.3525	 0.0	 114.0	 -114.0	 1.0	 202.81	 1	 227	 57.705	 0.0	 0.0	 0.0	 0.0	 0.0	 0.0	 0.0	 0.0	 0.0	 0.0	 170.8667; % COW
	10909	 0.0	 0.0	 65.61	 -58.0	 1.0	 171.05	 0	 115	 18.615	 0.0	 0.0	 0.0	 0.0	 0.0	 0.0	 0.0	 0.0	 0.0	 0.0	 170.8667; % NG
	10910	 135.905	 0.0	 111.0	 -111.0	 1.0	 185.54	 1	 222	 49.81	 0.0	 0.0	 0.0	 0.0	 0.0	 0.0	 0.0	 0.0	 0.0	 0.0	 170.8667; % NG
	10911	 0.0	 0.0	 134.0	 -134.0	 1.0	 205.0	 0	 267	 25.94	 0.0	 0.0	 0.0	 0.0	 0.0	 0.0	 0.0	 0.0	 0.0	 0.0	 170.8667; % NG
	10912	 117.075	 0.0	 88.0	 -88.0	 1.0	 246.02	 1	 176	 58.15	 0.0	 0.0	 0.0	 0.0	 0.0	 0.0	 0.0	 0.0	 0.0	 0.0	 170.87; % NG
	10913	 0.0	 0.0	 65.61	 -12.0	 1.0	 188.36	 0	 24	 8.78	 0.0	 0.0	 0.0	 0.0	 0.0	 0.0	 0.0	 0.0	 0.0	 0.0	 170.8667; % NG
	10914	 69.8075	 0.0	 68.0	 -68.0	 1.0	 9.4	 1	 136	 3.615	 0.0	 0.0	 0.0	 0.0	 0.0	 0.0	 0.0	 0.0	 0.0	 0.0	 9.4; % COW
	10919	 105.625	 0.0	 78.0	 -78.0	 1.0	 148.42	 1	 155	 56.25	 0.0	 0.0	 0.0	 0.0	 0.0	 0.0	 0.0	 0.0	 0.0	 0.0	 112.5; % NG
	10920	 0.0	 0.0	 43.2	 -13.0	 1.0	 112.95	 0	 25	 24.58	 0.0	 0.0	 0.0	 0.0	 0.0	 0.0	 0.0	 0.0	 0.0	 0.0	 112.5; % COW
	10921	 174.9475	 0.0	 152.0	 -152.0	 1.0	 131.63	 1	 303	 46.895	 0.0	 0.0	 0.0	 0.0	 0.0	 0.0	 0.0	 0.0	 0.0	 0.0	 112.5; % NG
	10922	 0.0	 0.0	 66.0	 -66.0	 1.0	 153.59	 0	 131	 21.25	 0.0	 0.0	 0.0	 0.0	 0.0	 0.0	 0.0	 0.0	 0.0	 0.0	 112.5; % COW
	10923	 96.9725	 0.0	 92.0	 -92.0	 1.0	 107.98	 1	 184	 9.945	 0.0	 0.0	 0.0	 0.0	 0.0	 0.0	 0.0	 0.0	 0.0	 0.0	 84.6; % NG
	10923	 52.75	 0.0	 44.0	 -44.0	 1.0	 85.56	 1	 88	 17.5	 0.0	 0.0	 0.0	 0.0	 0.0	 0.0	 0.0	 0.0	 0.0	 0.0	 84.6; % NG
	10925	 18.7	 0.0	 15.0	 -15.0	 1.0	 16.87	 1	 29	 8.4	 0.0	 0.0	 0.0	 0.0	 0.0	 0.0	 0.0	 0.0	 0.0	 0.0	 16.8; % NG
	10925	 13.63	 0.0	 12.0	 -12.0	 1.0	 8.37	 1	 24	 3.26	 0.0	 0.0	 0.0	 0.0	 0.0	 0.0	 0.0	 0.0	 0.0	 0.0	 7.5; % NG
	10930	 96.04	 21.715	 118.43	 -75.0	 1.0	 310.59	 1	 150	 42.08	 0.0	 0.0	 0.0	 0.0	 0.0	 0.0	 0.0	 0.0	 0.0	 0.0	 232.6667; % NG
	10931	 99.9925	 13.715	 118.43	 -91.0	 1.0	 290.05	 1	 181	 18.985	 0.0	 0.0	 0.0	 0.0	 0.0	 0.0	 0.0	 0.0	 0.0	 0.0	 232.6667; % NG
	10932	 262.1925	 0.0	 240.0	 -240.0	 1.0	 261.17	 1	 479	 45.385	 0.0	 0.0	 0.0	 0.0	 0.0	 0.0	 0.0	 0.0	 0.0	 0.0	 232.6667; % NG
	10933	 58.0	 0.0	 46.0	 -46.0	 1.0	 50.0	 1	 91	 25.0	 0.0	 0.0	 0.0	 0.0	 0.0	 0.0	 0.0	 0.0	 0.0	 0.0	 50.0; % NG
	10934	 60.5	 0.0	 52.0	 -52.0	 1.0	 39.66	 1	 103	 18.0	 0.0	 0.0	 0.0	 0.0	 0.0	 0.0	 0.0	 0.0	 0.0	 0.0	 36.0; % COW
	10934	 71.5	 0.0	 63.0	 -63.0	 1.0	 53.42	 1	 125	 18.0	 0.0	 0.0	 0.0	 0.0	 0.0	 0.0	 0.0	 0.0	 0.0	 0.0	 36.0; % NG
	10938	 47.21	 0.0	 44.0	 -44.0	 1.0	 20.22	 1	 87	 7.42	 0.0	 0.0	 0.0	 0.0	 0.0	 0.0	 0.0	 0.0	 0.0	 0.0	 18.0; % COW
	10939	 9.375	 0.0	 8.0	 -8.0	 1.0	 8.1	 1	 15	 3.75	 0.0	 0.0	 0.0	 0.0	 0.0	 0.0	 0.0	 0.0	 0.0	 0.0	 7.5; % NG
	10940	 10.375	 0.0	 9.0	 -9.0	 1.0	 8.27	 1	 17	 3.75	 0.0	 0.0	 0.0	 0.0	 0.0	 0.0	 0.0	 0.0	 0.0	 0.0	 7.5; % NG
	10944	 159.815	 0.0	 129.0	 -129.0	 1.0	 147.93	 1	 258	 61.63	 0.0	 0.0	 0.0	 0.0	 0.0	 0.0	 0.0	 0.0	 0.0	 0.0	 135.0; % NG
	10945	 161.195	 0.0	 132.0	 -132.0	 1.0	 194.09	 1	 263	 59.39	 0.0	 0.0	 0.0	 0.0	 0.0	 0.0	 0.0	 0.0	 0.0	 0.0	 135.0; % NG
	10946	 128.75	 0.0	 95.0	 -95.0	 1.0	 154.67	 1	 190	 67.5	 0.0	 0.0	 0.0	 0.0	 0.0	 0.0	 0.0	 0.0	 0.0	 0.0	 135.0; % NG
	10947	 131.28	 0.0	 104.0	 -104.0	 1.0	 200.23	 1	 208	 54.56	 0.0	 0.0	 0.0	 0.0	 0.0	 0.0	 0.0	 0.0	 0.0	 0.0	 135.0; % NG
	10948	 0.0	 0.0	 95.0	 -95.0	 1.0	 185.19	 0	 189	 22.45	 0.0	 0.0	 0.0	 0.0	 0.0	 0.0	 0.0	 0.0	 0.0	 0.0	 135.0; % NG
	10949	 179.105	 0.0	 157.0	 -157.0	 1.0	 172.19	 1	 313	 45.21	 0.0	 0.0	 0.0	 0.0	 0.0	 0.0	 0.0	 0.0	 0.0	 0.0	 135.0; % NG
	10951	 0.0	 0.0	 25.0	 -25.0	 1.0	 19.99	 0	 49	 2.375	 0.0	 0.0	 0.0	 0.0	 0.0	 0.0	 0.0	 0.0	 0.0	 0.0	 19.35; % NG
	10951	 0.0	 0.0	 7.43	 -1.0	 1.0	 21.18	 0	 1	 8.38	 0.0	 0.0	 0.0	 0.0	 0.0	 0.0	 0.0	 0.0	 0.0	 0.0	 19.35; % PEL
	10955	 57.5275	 0.0	 50.0	 -50.0	 1.0	 34.02	 1	 99	 16.055	 0.0	 0.0	 0.0	 0.0	 0.0	 0.0	 0.0	 0.0	 0.0	 0.0	 34.0; % COW
	10955	 48.76	 0.0	 45.0	 -45.0	 1.0	 41.9	 1	 89	 8.52	 0.0	 0.0	 0.0	 0.0	 0.0	 0.0	 0.0	 0.0	 0.0	 0.0	 34.0; % NG
	10956	 0.0	 0.0	 20.0	 -20.0	 1.0	 44.38	 0	 40	 2.355	 0.0	 0.0	 0.0	 0.0	 0.0	 0.0	 0.0	 0.0	 0.0	 0.0	 34.0; % PEL
	10956	 0.0	 0.0	 106.0	 -106.0	 1.0	 45.23	 0	 212	 8.415	 0.0	 0.0	 0.0	 0.0	 0.0	 0.0	 0.0	 0.0	 0.0	 0.0	 34.0; % PEL
	10959	 217.3225	 0.0	 162.0	 -162.0	 1.0	 336.76	 1	 324	 110.645	 0.0	 0.0	 0.0	 0.0	 0.0	 0.0	 0.0	 0.0	 0.0	 0.0	 262.2; % NG
	10965	 0.0	 0.0	 73.0	 -49.35	 1.0	 382.51	 0	 27	 148.96	 0.0	 0.0	 0.0	 0.0	 0.0	 0.0	 0.0	 0.0	 0.0	 0.0	 342.7; % NG
	10966	 0.0	 0.0	 30.0	 -30.0	 1.0	 6.96	 0	 59	 1.425	 0.0	 0.0	 0.0	 0.0	 0.0	 0.0	 0.0	 0.0	 0.0	 0.0	 6.9; % NG
	10966	 52.82	 0.0	 52.0	 -52.0	 1.0	 9.31	 1	 103	 2.64	 0.0	 0.0	 0.0	 0.0	 0.0	 0.0	 0.0	 0.0	 0.0	 0.0	 6.9; % PEL
	10966	 61.03	 0.0	 56.0	 -56.0	 1.0	 36.0	 1	 112	 10.06	 0.0	 0.0	 0.0	 0.0	 0.0	 0.0	 0.0	 0.0	 0.0	 0.0	 27.5; % NG
	10969	 0.0	 0.0	 31.0	 -31.0	 1.0	 32.28	 0	 62	 5.465	 0.0	 0.0	 0.0	 0.0	 0.0	 0.0	 0.0	 0.0	 0.0	 0.0	 26.0; % NG
	10972	 45.79	 0.0	 43.0	 -43.0	 1.0	 18.98	 1	 85	 6.58	 0.0	 0.0	 0.0	 0.0	 0.0	 0.0	 0.0	 0.0	 0.0	 0.0	 17.5; % NG
	10972	 46.875	 0.0	 43.0	 -43.0	 1.0	 21.37	 1	 85	 8.75	 0.0	 0.0	 0.0	 0.0	 0.0	 0.0	 0.0	 0.0	 0.0	 0.0	 17.5; % PEL
	10973	 0.0	 0.0	 10.0	 -10.0	 1.0	 21.11	 0	 19	 4.21	 0.0	 0.0	 0.0	 0.0	 0.0	 0.0	 0.0	 0.0	 0.0	 0.0	 17.5; % PEL
	10973	 36.875	 0.0	 33.0	 -33.0	 1.0	 19.51	 1	 65	 8.75	 0.0	 0.0	 0.0	 0.0	 0.0	 0.0	 0.0	 0.0	 0.0	 0.0	 17.5; % PEL
	10978	 108.475	 0.0	 85.0	 -85.0	 1.0	 103.8	 1	 169	 47.95	 0.0	 0.0	 0.0	 0.0	 0.0	 0.0	 0.0	 0.0	 0.0	 0.0	 95.9; % NG
	10981	 99.3975	 0.0	 75.0	 -75.0	 1.0	 168.9	 1	 150	 48.795	 0.0	 0.0	 0.0	 0.0	 0.0	 0.0	 0.0	 0.0	 0.0	 0.0	 136.3; % NG
	10982	 108.505	 0.0	 86.0	 -86.0	 1.0	 154.45	 1	 171	 46.01	 0.0	 0.0	 0.0	 0.0	 0.0	 0.0	 0.0	 0.0	 0.0	 0.0	 136.3; % COW
	10985	 185.75	 0.0	 136.0	 -136.0	 1.0	 199.13	 1	 272	 99.5	 0.0	 0.0	 0.0	 0.0	 0.0	 0.0	 0.0	 0.0	 0.0	 0.0	 199.0; % NG
	10989	 137.9725	 0.0	 122.0	 -122.0	 1.0	 295.91	 1	 244	 31.945	 0.0	 0.0	 0.0	 0.0	 0.0	 0.0	 0.0	 0.0	 0.0	 0.0	 216.67; % NG
	10990	 88.24	 18.14	 110.28	 -74.0	 1.0	 242.35	 1	 148	 28.48	 0.0	 0.0	 0.0	 0.0	 0.0	 0.0	 0.0	 0.0	 0.0	 0.0	 216.6667; % NG
	10991	 86.6725	 14.64	 110.28	 -81.0	 1.0	 322.3	 1	 162	 11.345	 0.0	 0.0	 0.0	 0.0	 0.0	 0.0	 0.0	 0.0	 0.0	 0.0	 216.67; % NG
	10993	 0.0	 0.0	 14.0	 -14.0	 1.0	 24.82	 0	 27	 4.835	 0.0	 0.0	 0.0	 0.0	 0.0	 0.0	 0.0	 0.0	 0.0	 0.0	 20.625; % PEL
	10993	 0.0	 0.0	 48.0	 -48.0	 1.0	 21.05	 0	 95	 3.845	 0.0	 0.0	 0.0	 0.0	 0.0	 0.0	 0.0	 0.0	 0.0	 0.0	 20.63; % PEL
	10994	 0.0	 0.0	 7.92	 -4.0	 1.0	 30.93	 0	 8	 2.08	 0.0	 0.0	 0.0	 0.0	 0.0	 0.0	 0.0	 0.0	 0.0	 0.0	 20.63; % NG
	10995	 36.655	 0.0	 32.0	 -32.0	 1.0	 25.07	 1	 63	 10.31	 0.0	 0.0	 0.0	 0.0	 0.0	 0.0	 0.0	 0.0	 0.0	 0.0	 20.625; % NG
	10998	 40.1275	 0.0	 36.0	 -36.0	 1.0	 34.25	 1	 72	 8.255	 0.0	 0.0	 0.0	 0.0	 0.0	 0.0	 0.0	 0.0	 0.0	 0.0	 25.0; % PEL
	10998	 29.25	 0.0	 23.0	 -23.0	 1.0	 28.91	 1	 46	 12.5	 0.0	 0.0	 0.0	 0.0	 0.0	 0.0	 0.0	 0.0	 0.0	 0.0	 25.0; % PEL
	11005	 119.7	 0.0	 109.0	 -109.0	 1.0	 171.01	 1	 217	 22.4	 0.0	 0.0	 0.0	 0.0	 0.0	 0.0	 0.0	 0.0	 0.0	 0.0	 142.15; % NG
	11006	 47.99	 11.575	 72.35	 -49.2	 1.0	 185.88	 1	 88	 7.98	 0.0	 0.0	 0.0	 0.0	 0.0	 0.0	 0.0	 0.0	 0.0	 0.0	 142.15; % NG
	11008	 20.9	 0.0	 16.0	 -16.0	 1.0	 27.1	 1	 31	 10.8	 0.0	 0.0	 0.0	 0.0	 0.0	 0.0	 0.0	 0.0	 0.0	 0.0	 21.6; % PEL
	11009	 59.075	 0.0	 55.0	 -55.0	 1.0	 22.46	 1	 110	 8.15	 0.0	 0.0	 0.0	 0.0	 0.0	 0.0	 0.0	 0.0	 0.0	 0.0	 21.6; % NG
	11009	 12.4925	 0.0	 11.0	 -11.0	 1.0	 19.2	 1	 22	 2.985	 0.0	 0.0	 0.0	 0.0	 0.0	 0.0	 0.0	 0.0	 0.0	 0.0	 12.8; % PEL
	11014	 698.6725	 0.0	 496.0	 -496.0	 1.0	 1169.43	 1	 991	 406.345	 0.0	 0.0	 0.0	 0.0	 0.0	 0.0	 0.0	 0.0	 0.0	 0.0	 1082.5; % COW
	11015	 0.0	 0.0	 415.68	 -267.0	 1.0	 1277.21	 0	 534	 138.91	 0.0	 0.0	 0.0	 0.0	 0.0	 0.0	 0.0	 0.0	 0.0	 0.0	 1082.5; % COW
	11016	 855.125	 0.0	 585.0	 -585.0	 1.0	 1357.65	 1	 1169	 541.25	 0.0	 0.0	 0.0	 0.0	 0.0	 0.0	 0.0	 0.0	 0.0	 0.0	 1082.5; % NUC
...
];

%% generator cost data
%	2	startup	shutdown	n	c(n-1)	...	c0
mpc.gencost = [
	2	 0.0	 0.0	 3	   0.000000	   0.000000	   0.000000; % NG
	2	 0.0	 0.0	 3	   0.000000	   0.000000	   0.000000; % PEL
	2	 0.0	 0.0	 3	   0.000000	   0.000000	   0.000000; % COW
	2	 0.0	 0.0	 3	   0.000000	   0.000000	   0.000000; % NG
	2	 0.0	 0.0	 3	   0.000000	   0.000000	   0.000000; % NG
	2	 0.0	 0.0	 3	   0.000000	   0.000000	   0.000000; % NG
	2	 0.0	 0.0	 3	   0.000000	   0.000000	   0.000000; % NG
	2	 0.0	 0.0	 3	   0.000000	   0.000000	   0.000000; % NG
	2	 0.0	 0.0	 3	   0.000000	   0.000000	   0.000000; % PEL
	2	 0.0	 0.0	 3	   0.000000	   0.000000	   0.000000; % NG
	2	 0.0	 0.0	 3	   0.000000	   0.000000	   0.000000; % NG
	2	 0.0	 0.0	 3	   0.000000	   0.000000	   0.000000; % COW
	2	 0.0	 0.0	 3	   0.000000	   0.000000	   0.000000; % NG
	2	 0.0	 0.0	 3	   0.000000	   0.000000	   0.000000; % NG
	2	 0.0	 0.0	 3	   0.000000	   0.000000	   0.000000; % NG
	2	 0.0	 0.0	 3	   0.000000	   0.000000	   0.000000; % NG
	2	 0.0	 0.0	 3	   0.000000	   0.000000	   0.000000; % NG
	2	 0.0	 0.0	 3	   0.000000	   0.000000	   0.000000; % NG
	2	 0.0	 0.0	 3	   0.000000	   0.000000	   0.000000; % NG
	2	 0.0	 0.0	 3	   0.000000	   0.000000	   0.000000; % NG
	2	 0.0	 0.0	 3	   0.000000	   0.000000	   0.000000; % NG
	2	 0.0	 0.0	 3	   0.000000	   0.000000	   0.000000; % NG
	2	 0.0	 0.0	 3	   0.000000	   0.000000	   0.000000; % PEL
	2	 0.0	 0.0	 3	   0.000000	   0.000000	   0.000000; % NG
	2	 0.0	 0.0	 3	   0.000000	   0.000000	   0.000000; % NG
	2	 0.0	 0.0	 3	   0.000000	   0.000000	   0.000000; % PEL
	2	 0.0	 0.0	 3	   0.000000	   0.000000	   0.000000; % NG
	2	 0.0	 0.0	 3	   0.000000	   0.000000	   0.000000; % PEL
	2	 0.0	 0.0	 3	   0.000000	   0.000000	   0.000000; % PEL
	2	 0.0	 0.0	 3	   0.000000	   0.000000	   0.000000; % NG
	2	 0.0	 0.0	 3	   0.000000	   0.000000	   0.000000; % NG
	2	 0.0	 0.0	 3	   0.000000	   0.000000	   0.000000; % NG
	2	 0.0	 0.0	 3	   0.000000	   0.000000	   0.000000; % PEL
	2	 0.0	 0.0	 3	   0.001000	  13.233000	 838.720000; % COW
	2	 0.0	 0.0	 3	   0.001000	  17.183000	 838.720000; % COW
	2	 0.0	 0.0	 3	   0.000000	   0.000000	   0.000000; % NG
	2	 0.0	 0.0	 3	   0.000000	   0.000000	   0.000000; % PEL
	2	 0.0	 0.0	 3	   0.000000	   0.000000	   0.000000; % NG
	2	 0.0	 0.0	 3	   0.000000	   0.000000	   0.000000; % PEL
	2	 0.0	 0.0	 3	   0.000000	   0.000000	   0.000000; % NG
	2	 0.0	 0.0	 3	   0.000000	   0.000000	   0.000000; % NG
	2	 0.0	 0.0	 3	   0.000000	   0.000000	   0.000000; % COW
	2	 0.0	 0.0	 3	   0.000000	   0.000000	   0.000000; % NG
	2	 0.0	 0.0	 3	   0.000000	   0.000000	   0.000000; % NG
	2	 0.0	 0.0	 3	   0.000000	   0.000000	   0.000000; % NG
	2	 0.0	 0.0	 3	   0.000000	   0.000000	   0.000000; % NG
	2	 0.0	 0.0	 3	   0.000000	   0.000000	   0.000000; % NG
	2	 0.0	 0.0	 3	   0.000000	   0.000000	   0.000000; % NG
	2	 0.0	 0.0	 3	   0.000000	   0.000000	   0.000000; % NG
	2	 0.0	 0.0	 3	   0.000000	   0.000000	   0.000000; % PEL
	2	 0.0	 0.0	 3	   0.000000	   0.000000	   0.000000; % PEL
	2	 0.0	 0.0	 3	   0.000000	   0.000000	   0.000000; % NG
	2	 0.0	 0.0	 3	   0.000000	   0.000000	   0.000000; % NG
	2	 0.0	 0.0	 3	   0.000000	   0.000000	   0.000000; % NG
	2	 0.0	 0.0	 3	   0.000000	   0.000000	   0.000000; % NG
	2	 0.0	 0.0	 3	   0.000000	   0.000000	   0.000000; % NG
	2	 0.0	 0.0	 3	   0.000000	   0.000000	   0.000000; % NG
	2	 0.0	 0.0	 3	   0.000000	   0.000000	   0.000000; % NG
	2	 0.0	 0.0	 3	   0.000000	   0.000000	   0.000000; % COW
	2	 0.0	 0.0	 3	   0.000000	   0.000000	   0.000000; % PEL
	2	 0.0	 0.0	 3	   0.000000	   0.000000	   0.000000; % NG
	2	 0.0	 0.0	 3	   0.000000	   0.000000	   0.000000; % NG
	2	 0.0	 0.0	 3	   0.000000	   0.000000	   0.000000; % NG
	2	 0.0	 0.0	 3	   0.000000	   0.000000	   0.000000; % PEL
	2	 0.0	 0.0	 3	   0.000000	   0.000000	   0.000000; % NG
	2	 0.0	 0.0	 3	   0.000000	   0.000000	   0.000000; % NG
	2	 0.0	 0.0	 3	   0.000000	   0.000000	   0.000000; % NG
	2	 0.0	 0.0	 3	   0.000000	   0.000000	   0.000000; % COW
	2	 0.0	 0.0	 3	   0.000000	   0.000000	   0.000000; % PEL
	2	 0.0	 0.0	 3	   0.001000	  15.617000	 662.550000; % PEL
	2	 0.0	 0.0	 3	   0.001000	  16.261000	 662.550000; % NG
	2	 0.0	 0.0	 3	   0.001000	  15.711000	 662.550000; % NG
	2	 0.0	 0.0	 3	   0.001000	  15.154000	 662.550000; % NG
	2	 0.0	 0.0	 3	   0.000000	   0.000000	   0.000000; % NG
	2	 0.0	 0.0	 3	   0.000000	   0.000000	   0.000000; % NG
	2	 0.0	 0.0	 3	   0.000000	   0.000000	   0.000000; % NG
	2	 0.0	 0.0	 3	   0.000000	   0.000000	   0.000000; % NG
	2	 0.0	 0.0	 3	   0.000000	   0.000000	   0.000000; % NG
	2	 0.0	 0.0	 3	   0.000000	   0.000000	   0.000000; % NG
	2	 0.0	 0.0	 3	   0.000000	   0.000000	   0.000000; % NG
	2	 0.0	 0.0	 3	   0.000000	   8.000000	 1000.000000; % COW
	2	 0.0	 0.0	 3	   0.000000	   0.000000	   0.000000; % NG
	2	 0.0	 0.0	 3	   0.000000	   0.000000	   0.000000; % PEL
	2	 0.0	 0.0	 3	   0.000000	   0.000000	   0.000000; % NG
	2	 0.0	 0.0	 3	   0.000000	   0.000000	   0.000000; % PEL
	2	 0.0	 0.0	 3	   0.000000	   0.000000	   0.000000; % COW
	2	 0.0	 0.0	 3	   0.000000	   0.000000	   0.000000; % NG
	2	 0.0	 0.0	 3	   0.000000	   0.000000	   0.000000; % COW
	2	 0.0	 0.0	 3	   0.000000	   0.000000	   0.000000; % NG
	2	 0.0	 0.0	 3	   0.000000	   0.000000	   0.000000; % NG
	2	 0.0	 0.0	 3	   0.000000	   0.000000	   0.000000; % PEL
	2	 0.0	 0.0	 3	   0.000000	   0.000000	   0.000000; % PEL
	2	 0.0	 0.0	 3	   0.001000	  14.734000	 733.350000; % NG
	2	 0.0	 0.0	 3	   0.001000	  14.977000	 733.350000; % NG
	2	 0.0	 0.0	 3	   0.000000	   0.000000	   0.000000; % PEL
	2	 0.0	 0.0	 3	   0.000000	   0.000000	   0.000000; % NG
	2	 0.0	 0.0	 3	   0.000000	   0.000000	   0.000000; % COW
	2	 0.0	 0.0	 3	   0.000000	   0.000000	   0.000000; % NG
	2	 0.0	 0.0	 3	   0.000000	   0.000000	   0.000000; % NG
	2	 0.0	 0.0	 3	   0.000000	   0.000000	   0.000000; % NG
	2	 0.0	 0.0	 3	   0.000000	   0.000000	   0.000000; % NG
	2	 0.0	 0.0	 3	   0.000000	   0.000000	   0.000000; % COW
	2	 0.0	 0.0	 3	   0.000000	   0.000000	   0.000000; % NG
	2	 0.0	 0.0	 3	   0.000000	   0.000000	   0.000000; % PEL
	2	 0.0	 0.0	 3	   0.000000	   0.000000	   0.000000; % NG
	2	 0.0	 0.0	 3	   0.000000	   0.000000	   0.000000; % NG
	2	 0.0	 0.0	 3	   0.000000	   0.000000	   0.000000; % NG
	2	 0.0	 0.0	 3	   0.002000	  21.550000	 1403.470000; % COW
	2	 0.0	 0.0	 3	   0.002000	  20.062000	 1403.470000; % COW
	2	 0.0	 0.0	 3	   0.000000	   0.000000	   0.000000; % NG
	2	 0.0	 0.0	 3	   0.000000	   0.000000	   0.000000; % NG
	2	 0.0	 0.0	 3	   0.000000	   0.000000	   0.000000; % NG
	2	 0.0	 0.0	 3	   0.000000	   0.000000	   0.000000; % NG
	2	 0.0	 0.0	 3	   0.000000	   0.000000	   0.000000; % PEL
	2	 0.0	 0.0	 3	   0.000000	   0.000000	   0.000000; % PEL
	2	 0.0	 0.0	 3	   0.001000	  15.396000	 692.700000; % NG
	2	 0.0	 0.0	 3	   0.000000	   0.000000	   0.000000; % NG
	2	 0.0	 0.0	 3	   0.000000	   0.000000	   0.000000; % NG
	2	 0.0	 0.0	 3	   0.000000	   0.000000	   0.000000; % NG
	2	 0.0	 0.0	 3	   0.000000	   0.000000	   0.000000; % NG
	2	 0.0	 0.0	 3	   0.000000	   0.000000	   0.000000; % COW
	2	 0.0	 0.0	 3	   0.000000	   0.000000	   0.000000; % NG
	2	 0.0	 0.0	 3	   0.000000	   0.000000	   0.000000; % NG
	2	 0.0	 0.0	 3	   0.000000	   0.000000	   0.000000; % NG
	2	 0.0	 0.0	 3	   0.001000	  14.226000	 731.700000; % PEL
	2	 0.0	 0.0	 3	   0.001000	  15.513000	 656.550000; % NG
	2	 0.0	 0.0	 3	   0.001000	  15.163000	 741.000000; % NG
	2	 0.0	 0.0	 3	   0.001000	  14.937000	 741.000000; % NG
	2	 0.0	 0.0	 3	   0.001000	  15.249000	 741.000000; % NG
	2	 0.0	 0.0	 3	   0.001000	  17.063000	 741.000000; % NG
	2	 0.0	 0.0	 3	   0.000000	   0.000000	   0.000000; % PEL
	2	 0.0	 0.0	 3	   0.000000	   0.000000	   0.000000; % PEL
	2	 0.0	 0.0	 3	   0.000000	   0.000000	   0.000000; % NG
	2	 0.0	 0.0	 3	   0.000000	   0.000000	   0.000000; % COW
	2	 0.0	 0.0	 3	   0.000000	   0.000000	   0.000000; % NG
	2	 0.0	 0.0	 3	   0.000000	   0.000000	   0.000000; % NG
	2	 0.0	 0.0	 3	   0.000000	   0.000000	   0.000000; % NG
	2	 0.0	 0.0	 3	   0.000000	   0.000000	   0.000000; % NG
	2	 0.0	 0.0	 3	   0.000000	   0.000000	   0.000000; % NG
	2	 0.0	 0.0	 3	   0.000000	   0.000000	   0.000000; % COW
	2	 0.0	 0.0	 3	   0.000000	   0.000000	   0.000000; % NG
	2	 0.0	 0.0	 3	   0.000000	   0.000000	   0.000000; % COW
	2	 0.0	 0.0	 3	   0.000000	   0.000000	   0.000000; % NG
	2	 0.0	 0.0	 3	   0.000000	   0.000000	   0.000000; % COW
	2	 0.0	 0.0	 3	   0.001000	  13.771000	 726.900000; % NG
	2	 0.0	 0.0	 3	   0.001000	  14.554000	 726.900000; % NG
	2	 0.0	 0.0	 3	   0.000000	   0.000000	   0.000000; % NG
	2	 0.0	 0.0	 3	   0.000000	   0.000000	   0.000000; % NG
	2	 0.0	 0.0	 3	   0.002000	  19.673000	 949.000000; % NG
	2	 0.0	 0.0	 3	   0.001000	  15.435000	 949.000000; % NG
	2	 0.0	 0.0	 3	   0.001000	  16.186000	 949.000000; % NG
	2	 0.0	 0.0	 3	   0.000000	   0.000000	   0.000000; % NG
	2	 0.0	 0.0	 3	   0.000000	   0.000000	   0.000000; % COW
	2	 0.0	 0.0	 3	   0.000000	   0.000000	   0.000000; % NG
	2	 0.0	 0.0	 3	   0.000000	   0.000000	   0.000000; % COW
	2	 0.0	 0.0	 3	   0.000000	   0.000000	   0.000000; % NG
	2	 0.0	 0.0	 3	   0.000000	   0.000000	   0.000000; % NG
	2	 0.0	 0.0	 3	   0.000000	   0.000000	   0.000000; % NG
	2	 0.0	 0.0	 3	   0.000000	   0.000000	   0.000000; % NG
	2	 0.0	 0.0	 3	   0.000000	   0.000000	   0.000000; % NG
	2	 0.0	 0.0	 3	   0.000000	   0.000000	   0.000000; % NG
	2	 0.0	 0.0	 3	   0.000000	   0.000000	   0.000000; % NG
	2	 0.0	 0.0	 3	   0.000000	   0.000000	   0.000000; % NG
	2	 0.0	 0.0	 3	   0.000000	   0.000000	   0.000000; % NG
	2	 0.0	 0.0	 3	   0.000000	   0.000000	   0.000000; % PEL
	2	 0.0	 0.0	 3	   0.000000	   0.000000	   0.000000; % COW
	2	 0.0	 0.0	 3	   0.000000	   0.000000	   0.000000; % NG
	2	 0.0	 0.0	 3	   0.000000	   0.000000	   0.000000; % PEL
	2	 0.0	 0.0	 3	   0.000000	   0.000000	   0.000000; % PEL
	2	 0.0	 0.0	 3	   0.000000	   0.000000	   0.000000; % NG
	2	 0.0	 0.0	 3	   0.000000	   0.000000	   0.000000; % NG
	2	 0.0	 0.0	 3	   0.000000	   0.000000	   0.000000; % NG
	2	 0.0	 0.0	 3	   0.000000	   0.000000	   0.000000; % PEL
	2	 0.0	 0.0	 3	   0.000000	   0.000000	   0.000000; % NG
	2	 0.0	 0.0	 3	   0.001000	  15.235000	 639.000000; % NG
	2	 0.0	 0.0	 3	   0.000000	   0.000000	   0.000000; % NG
	2	 0.0	 0.0	 3	   0.000000	   0.000000	   0.000000; % PEL
	2	 0.0	 0.0	 3	   0.000000	   0.000000	   0.000000; % PEL
	2	 0.0	 0.0	 3	   0.000000	   0.000000	   0.000000; % PEL
	2	 0.0	 0.0	 3	   0.000000	   0.000000	   0.000000; % NG
	2	 0.0	 0.0	 3	   0.000000	   0.000000	   0.000000; % NG
	2	 0.0	 0.0	 3	   0.000000	   0.000000	   0.000000; % COW
	2	 0.0	 0.0	 3	   0.000000	   0.000000	   0.000000; % NG
	2	 0.0	 0.0	 3	   0.001000	  14.640000	 925.000000; % NG
	2	 0.0	 0.0	 3	   0.002000	  18.958000	 925.000000; % NG
	2	 0.0	 0.0	 3	   0.001000	  16.316000	 925.000000; % NG
	2	 0.0	 0.0	 3	   0.000000	   0.000000	   0.000000; % PEL
	2	 0.0	 0.0	 3	   0.000000	   0.000000	   0.000000; % PEL
	2	 0.0	 0.0	 3	   0.000000	   0.000000	   0.000000; % NG
	2	 0.0	 0.0	 3	   0.000000	   0.000000	   0.000000; % NG
	2	 0.0	 0.0	 3	   0.000000	   0.000000	   0.000000; % PEL
	2	 0.0	 0.0	 3	   0.000000	   0.000000	   0.000000; % PEL
	2	 0.0	 0.0	 3	   0.001000	  16.179000	 813.220000; % NG
	2	 0.0	 0.0	 3	   0.001000	  13.515000	 813.220000; % NG
	2	 0.0	 0.0	 3	   0.000000	   0.000000	   0.000000; % PEL
	2	 0.0	 0.0	 3	   0.000000	   0.000000	   0.000000; % NG
	2	 0.0	 0.0	 3	   0.000000	   0.000000	   0.000000; % PEL
	2	 0.0	 0.0	 3	   0.000000	   0.000000	   0.000000; % COW
	2	 0.0	 0.0	 3	   0.000000	   0.000000	   0.000000; % COW
	2	 0.0	 0.0	 3	   0.000000	   0.000000	   0.000000; % NUC
...
];

%% branch data
%	fbus	tbus	r	x	b	rateA	rateB	rateC	ratio	angle	status	angmin	angmax
mpc.branch = [
	10002	 10001	 0.057474	 0.297874	 0.04557	 185.33	 185.33	 185.33	 0.0	 0.0	 1	 -30.0	 30.0;
	10011	 10001	 0.027895	 0.200986	 0.06271	 167.88	 167.88	 167.88	 0.0	 0.0	 1	 -30.0	 30.0;
	10014	 10002	 0.028286	 0.132954	 0.07205	 207.43	 207.43	 207.43	 0.0	 0.0	 1	 -30.0	 30.0;
	10004	 10003	 0.012099	 0.073288	 0.01171	 170.67	 170.67	 170.67	 0.0	 0.0	 1	 -30.0	 30.0;
	10003	 10010	 0.012423	 0.079127	 0.01766	 201.54	 201.54	 201.54	 0.0	 0.0	 1	 -30.0	 30.0;
	10937	 10003	 0.009516	 0.050189	 0.02744	 211.8	 211.8	 211.8	 0.0	 0.0	 1	 -30.0	 30.0;
	10004	 10005	 0.000201	 0.001173	 0.0	 0.0	 0.0	 0.0	 0.0	 0.0	 1	 -30.0	 30.0;
	10004	 10937	 0.019482	 0.100643	 0.02121	 195.1	 195.1	 195.1	 0.0	 0.0	 1	 -30.0	 30.0;
	10006	 10007	 0.000272	 0.001137	 0.0	 0.0	 0.0	 0.0	 0.0	 0.0	 1	 -30.0	 30.0;
	10008	 10007	 0.00871	 0.065557	 0.0156	 212.34	 212.34	 212.34	 0.0	 0.0	 1	 -30.0	 30.0;
	10007	 13019	 0.005848	 0.038664	 0.02062	 218.55	 218.55	 218.55	 0.0	 0.0	 1	 -30.0	 30.0;
	10007	 13028	 0.018994	 0.103855	 0.1879	 231.63	 231.63	 231.63	 0.0	 0.0	 1	 -30.0	 30.0;
	10008	 10009	 0.000236	 0.001046	 0.0	 0.0	 0.0	 0.0	 0.0	 0.0	 1	 -30.0	 30.0;
	10016	 10008	 0.013033	 0.083799	 0.0301	 229.92	 229.92	 229.92	 0.0	 0.0	 1	 -30.0	 30.0;
	13019	 10008	 0.01355	 0.065214	 0.032	 184.78	 184.78	 184.78	 0.0	 0.0	 1	 -30.0	 30.0;
	10014	 10010	 0.007781	 0.030841	 0.02241	 197.37	 197.37	 197.37	 0.0	 0.0	 1	 -30.0	 30.0;
	10011	 10020	 0.022817	 0.11103	 0.02458	 214.06	 214.06	 214.06	 0.0	 0.0	 1	 -30.0	 30.0;
	10013	 10012	 0.000261	 0.019344	 0.0	 473.63	 473.63	 473.63	 1.0	 0.0	 1	 -30.0	 30.0;
	10012	 10023	 0.001396	 0.016565	 0.31452	 1105.1	 1105.1	 1105.1	 0.0	 0.0	 1	 -30.0	 30.0;
	10012	 10987	 0.000883	 0.009393	 0.17078	 1237.08	 1237.08	 1237.08	 0.0	 0.0	 1	 -30.0	 30.0;
	10014	 10013	 0.002093	 0.00845	 0.00407	 236.46	 236.46	 236.46	 0.0	 0.0	 1	 -30.0	 30.0;
	10013	 10076	 0.015367	 0.101403	 0.11511	 239.71	 239.71	 239.71	 0.0	 0.0	 1	 -30.0	 30.0;
	10014	 10015	 0.00027	 0.001089	 0.0	 0.0	 0.0	 0.0	 0.0	 0.0	 1	 -30.0	 30.0;
	10016	 10017	 0.00025	 0.001152	 0.0	 0.0	 0.0	 0.0	 0.0	 0.0	 1	 -30.0	 30.0;
	10016	 13463	 0.008946	 0.046857	 0.19885	 245.26	 245.26	 245.26	 0.0	 0.0	 1	 -30.0	 30.0;
	10018	 10032	 0.002241	 0.0146	 0.03367	 250.62	 250.62	 250.62	 0.0	 0.0	 1	 -30.0	 30.0;
	10018	 10988	 0.006284	 0.038361	 0.02021	 263.59	 263.59	 263.59	 0.0	 0.0	 1	 -30.0	 30.0;
	10020	 10019	 0.000533	 0.033552	 0.0	 445.05	 445.05	 445.05	 0.975	 0.0	 1	 -30.0	 30.0;
	10730	 10019	 0.002142	 0.026863	 0.58195	 1150.4	 1150.4	 1150.4	 0.0	 0.0	 1	 -30.0	 30.0;
	10020	 10029	 0.005708	 0.039706	 0.02239	 233.76	 233.76	 233.76	 0.0	 0.0	 1	 -30.0	 30.0;
	10021	 13074	 0.006464	 0.035113	 0.12496	 251.36	 251.36	 251.36	 0.0	 0.0	 1	 -30.0	 30.0;
	10021	 13512	 0.002495	 0.018	 0.01137	 201.56	 201.56	 201.56	 0.0	 0.0	 1	 -30.0	 30.0;
	13690	 10021	 0.005193	 0.037293	 0.01323	 247.31	 247.31	 247.31	 0.0	 0.0	 1	 -30.0	 30.0;
	10022	 10024	 0.001583	 0.010843	 0.00579	 204.48	 204.48	 204.48	 0.0	 0.0	 1	 -30.0	 30.0;
	10022	 10030	 0.007083	 0.036561	 0.01221	 210.69	 210.69	 210.69	 0.0	 0.0	 1	 -30.0	 30.0;
	10024	 10023	 0.000558	 0.024885	 0.0	 465.77	 465.77	 465.77	 1.03125	 0.0	 1	 -30.0	 30.0;
	10730	 10023	 0.000587	 0.00738	 0.21892	 1205.73	 1205.73	 1205.73	 0.0	 0.0	 1	 -30.0	 30.0;
	10987	 10023	 0.001084	 0.012681	 0.23685	 1271.34	 1271.34	 1271.34	 0.0	 0.0	 1	 -30.0	 30.0;
	10024	 10039	 0.003249	 0.013727	 0.00413	 261.21	 261.21	 261.21	 0.0	 0.0	 1	 -30.0	 30.0;
	10025	 10858	 0.006298	 0.039083	 0.03135	 188.02	 188.02	 188.02	 0.0	 0.0	 1	 -30.0	 30.0;
...